Program Version,EnergyPlus-Darwin-64 8.1.0.009, YMD=2016.07.06 09:02
! <Version>, Version ID
 Version, 8.1.0.009
! <Timesteps per Hour>, #TimeSteps, Minutes per TimeStep {minutes}
 Timesteps per Hour,  6, 10
! <System Convergence Limits>, Minimum System TimeStep {minutes}, Max HVAC Iterations,  Minimum Plant Iterations, Maximum Plant Iterations
 System Convergence Limits, 1, 20, 2, 8
! <Simulation Control>, Do Zone Sizing, Do System Sizing, Do Plant Sizing, Do Design Days, Do Weather Simulation
 Simulation Control, No, No, No, Yes, Yes
! <Output Reporting Tolerances>, Tolerance for Time Heating Setpoint Not Met, Tolerance for Zone Cooling Setpoint Not Met Time
 Output Reporting Tolerances, 0.200, 0.200, 
! <Site:GroundTemperature:BuildingSurface>, Months From Jan to Dec {C}
 Site:GroundTemperature:BuildingSurface,   8.30,   6.40,   5.80,   6.30,   8.90,  11.70,  14.40,  16.40,  17.00,  16.10,  13.80,  11.00
! <Site:GroundTemperature:FCfactorMethod>, Months From Jan to Dec {C}
 Site:GroundTemperature:FCfactorMethod,   8.00,   7.00,   6.60,   7.00,   8.10,   9.60,  11.10,  12.10,  12.50,  12.00,  10.90,   0.00
! <Site:GroundTemperature:Shallow>, Months From Jan to Dec {C}
 Site:GroundTemperature:Shallow,  13.00,  13.00,  13.00,  13.00,  13.00,  13.00,  13.00,  13.00,  13.00,  13.00,  13.00,  13.00
! <Site:GroundTemperature:Deep>, Months From Jan to Dec {C}
 Site:GroundTemperature:Deep,  16.00,  16.00,  16.00,  16.00,  16.00,  16.00,  16.00,  16.00,  16.00,  16.00,  16.00,  16.00
! <Site:GroundReflectance>, Months From Jan to Dec {dimensionless}
 Site:GroundReflectance,  0.20,  0.20,  0.20,  0.20,  0.20,  0.20,  0.20,  0.20,  0.20,  0.20,  0.20,  0.20
! <Site:GroundReflectance:SnowModifier>, Normal, Daylighting {dimensionless}
 Site:GroundReflectance:SnowModifier,   1.000,   1.000
! <Site:GroundReflectance:Snow>, Months From Jan to Dec {dimensionless}
 Site:GroundReflectance:Snow,  0.20,  0.20,  0.20,  0.20,  0.20,  0.20,  0.20,  0.20,  0.20,  0.20,  0.20,  0.20
! <Site:GroundReflectance:Snow:Daylighting>, Months From Jan to Dec {dimensionless}
 Site:GroundReflectance:Snow:Daylighting,  0.20,  0.20,  0.20,  0.20,  0.20,  0.20,  0.20,  0.20,  0.20,  0.20,  0.20,  0.20
! <Environment:Weather Station>,Wind Sensor Height Above Ground {m},Wind Speed Profile Exponent {},Wind Speed Profile Boundary Layer Thickness {m},Air Temperature Sensor Height Above Ground {m},Wind Speed Modifier Coefficient [Internal],Temperature Modifier Coefficient [Internal]
Environment:Weather Station,10.000,0.140,270.000,1.500,1.586,9.750E-003
! <Site:Location>, Location Name, Latitude {N+/S- Deg}, Longitude {E+/W- Deg},  Time Zone Number {GMT+/-}, Elevation {m},  Standard Pressure at Elevation {Pa}, Standard RhoAir at Elevation
Site:Location,4250290 - UK WG data WMO#=03534,52.49,-1.67,0.00,96.00,100177,1.1907
! <Building Information>, Building Name,North Axis {deg},Terrain,  Loads Convergence Tolerance Value,Temperature Convergence Tolerance Value,  Solar Distribution,Maximum Number of Warmup Days,Minimum Number of Warmup Days
 Building Information,Semi,0.000,Urban,4.00000E-002,0.40000,FullExterior,25,6
! <Inside Convection Algorithm>, Algorithm {Simple | TARP | CeilingDiffuser | AdaptiveConvectionAlgorithm}
Inside Convection Algorithm,TARP
! <Outside Convection Algorithm>, Algorithm {SimpleCombined | TARP | MoWitt | DOE-2 | AdaptiveConvectionAlgorithm}
Outside Convection Algorithm,TARP
! <Sky Radiance Distribution>, Value {Anisotropic}
Sky Radiance Distribution,Anisotropic
! <Zone Air Solution Algorithm>, Value {ThirdOrderBackwardDifference | AnalyticalSolution | EulerMethod}
 Zone Air Solution Algorithm, ThirdOrderBackwardDifference
! <Zone Air Contaminant Balance Simulation>, Simulation {Yes/No}, Carbon Dioxide Concentration
 Zone Air Carbon Dioxide Balance Simulation, No,N/A
! <Zone Air Contaminant Balance Simulation>, Simulation {Yes/No}, Generic Contaminant Concentration
 Zone Air Generic Contaminant Balance Simulation, Yes,YES
! <Environment:Site Atmospheric Variation>,Wind Speed Profile Exponent {},Wind Speed Profile Boundary Layer Thickness {m},Air Temperature Gradient Coefficient {K/m}
Environment:Site Atmospheric Variation,0.220,370.000,6.500000E-003
! <SurfaceGeometry>,Starting Corner,Vertex Input Direction,Coordinate System,Daylight Reference Point Coordinate System,Rectangular (Simple) Surface Coordinate System
 Surface Geometry,UpperLeftCorner,Counterclockwise,RelativeCoordinateSystem,RelativeCoordinateSystem,RelativeToZoneOrigin
! <Surface Heat Transfer Algorithm>, Value {CTF - ConductionTransferFunction | EMPD - MoisturePenetrationDepthConductionTransferFunction | CondFD - ConductionFiniteDifference | HAMT - CombinedHeatAndMoistureFiniteElement} - Description,Inside Surface Max Temperature Limit{C}, Surface Convection Coefficient Lower Limit {W/m2-K}, Surface Convection Coefficient Upper Limit {W/m2-K}
Surface Heat Transfer Algorithm, HAMT - CombinedHeatAndMoistureFiniteElement,200,0.10,1000.0
! <Shading Summary>, Number of Fixed Detached Shades, Number of Building Detached Shades, Number of Attached Shades
 Shading Summary,0,78,0
! <Zone Summary>, Number of Zones, Number of Zone Surfaces, Number of SubSurfaces
 Zone Summary,12,204,27
! <Zone Information>,Zone Name,North Axis {deg},Origin X-Coordinate {m},Origin Y-Coordinate {m},Origin Z-Coordinate {m},Centroid X-Coordinate {m},Centroid Y-Coordinate {m},Centroid Z-Coordinate {m},Type,Zone Multiplier,Zone List Multiplier,Minimum X {m},Maximum X {m},Minimum Y {m},Maximum Y {m},Minimum Z {m},Maximum Z {m},Ceiling Height {m},Volume {m3},Zone Inside Convection Algorithm {Simple-Detailed-CeilingDiffuser-TrombeWall},Zone Outside Convection Algorithm {Simple-Detailed-Tarp-MoWitt-DOE-2-BLAST}, Floor Area {m2},Exterior Gross Wall Area {m2},Exterior Net Wall Area {m2},Exterior Window Area {m2}, Number of Surfaces, Number of SubSurfaces, Number of Shading SubSurfaces,  Part of Total Building Area
 Zone Information, STAIRCASE,0.0,0.00,0.00,0.00,0.54,3.80,2.60,1,1,1,0.00,1.08,3.00,4.59,0.00,5.20,5.20,8.89,TARP,TARP,1.71,8.27,8.27,0.00,12,2,0,Yes
 Zone Information, DINING,0.0,0.00,0.00,0.00,4.75,5.80,1.30,1,1,1,3.20,6.30,3.40,8.19,0.00,2.60,2.60,38.61,TARP,TARP,14.85,8.06,6.20,1.86,10,2,0,Yes
 Zone Information, CELLAR,0.0,0.00,0.00,0.00,3.15,4.10,-0.15,1,1,1,0.00,6.30,0.00,8.19,-0.30,0.00,0.30,15.48,TARP,TARP,51.60,6.24,6.24,0.00,17,0,0,Yes
 Zone Information, TOPHALL,0.0,0.00,0.00,0.00,1.45,4.42,3.90,1,1,1,0.00,2.51,3.00,5.49,2.60,5.20,2.60,11.82,TARP,TARP,4.55,2.34,1.80,0.54,16,6,0,Yes
 Zone Information, BEDROOM2,0.0,0.00,0.00,0.00,4.41,6.39,3.90,1,1,1,2.51,6.30,4.59,8.19,2.60,5.20,2.60,35.45,TARP,TARP,13.64,9.85,7.58,2.27,12,2,0,Yes
 Zone Information, BATH1,0.0,0.00,0.00,0.00,1.26,6.84,3.90,1,1,1,0.00,2.51,5.49,8.19,2.60,5.20,2.60,17.64,TARP,TARP,6.78,13.55,12.05,1.51,10,2,0,Yes
 Zone Information, BEDROOM1,0.0,0.00,0.00,0.00,4.41,2.30,3.90,1,1,1,2.51,6.30,0.00,4.59,2.60,5.20,2.60,45.20,TARP,TARP,17.38,9.85,7.57,2.27,14,2,0,Yes
 Zone Information, KITCHEN,0.0,0.00,0.00,0.00,1.60,6.39,1.30,1,1,1,0.00,3.20,4.59,8.19,0.00,2.60,2.60,29.95,TARP,TARP,11.52,17.68,15.76,1.92,16,2,0,Yes
 Zone Information, ATTIC,0.0,0.00,0.00,0.00,3.15,4.10,5.74,1,1,1,0.00,6.30,0.00,8.19,5.20,7.20,1.00,51.60,TARP,TARP,51.60,8.19,8.19,0.00,19,0,0,Yes
 Zone Information, HALL,0.0,0.00,0.00,0.00,1.39,2.42,1.30,1,1,1,0.00,3.20,0.00,4.59,0.00,2.60,2.60,22.25,TARP,TARP,8.56,12.74,10.94,1.80,22,5,0,Yes
 Zone Information, BEDROOM3,0.0,0.00,0.00,0.00,1.26,1.50,3.90,1,1,1,0.00,2.51,0.00,3.00,2.60,5.20,2.60,19.60,TARP,TARP,7.54,14.33,12.82,1.51,12,2,0,Yes
 Zone Information, LIVING,0.0,0.00,0.00,0.00,4.10,1.70,1.30,1,1,1,1.90,6.30,0.00,3.40,0.00,2.60,2.60,38.90,TARP,TARP,14.96,11.44,8.80,2.64,17,2,0,Yes
! <Zone Internal Gains/Equipment Information - Nominal>,Zone Name, Floor Area {m2},# Occupants,Area per Occupant {m2/person},Occupant per Area {person/m2},Interior Lighting {W/m2},Electric Load {W/m2},Gas Load {W/m2},Other Load {W/m2},Hot Water Eq {W/m2},Steam Equipment {W/m2},Sum Loads per Area {W/m2},Outdoor Controlled Baseboard Heat
 Zone Internal Gains, STAIRCASE,1.71,0.0,N/A,0.000,0.000,0.000,0.000,0.000,0.000,0.000,0.000,No
 Zone Internal Gains, DINING,14.85,0.0,N/A,0.000,0.000,0.000,0.000,0.000,0.000,0.000,0.000,No
 Zone Internal Gains, CELLAR,51.60,0.0,N/A,0.000,0.000,0.000,0.000,0.000,0.000,0.000,0.000,No
 Zone Internal Gains, TOPHALL,4.55,0.0,N/A,0.000,0.000,0.000,0.000,0.000,0.000,0.000,0.000,No
 Zone Internal Gains, BEDROOM2,13.64,1.0,13.635,7.334E-002,7.334,0.000,0.000,0.000,0.000,0.000,7.334,No
 Zone Internal Gains, BATH1,6.78,5.0,1.357,0.737,73.706,277.366,0.000,0.000,0.000,0.000,351.071,No
 Zone Internal Gains, BEDROOM1,17.38,2.0,8.692,0.115,5.752,2.039,0.000,0.000,0.000,0.000,7.791,No
 Zone Internal Gains, KITCHEN,11.52,1.0,11.520,8.681E-002,8.681,897.295,0.000,0.000,0.000,0.000,905.975,No
 Zone Internal Gains, ATTIC,51.60,0.0,N/A,0.000,0.000,0.000,0.000,0.000,0.000,0.000,0.000,No
 Zone Internal Gains, HALL,8.56,0.0,N/A,0.000,0.000,0.000,0.000,0.000,0.000,0.000,0.000,No
 Zone Internal Gains, BEDROOM3,7.54,2.0,3.769,0.265,13.267,0.000,0.000,0.000,0.000,0.000,13.267,No
 Zone Internal Gains, LIVING,14.96,3.0,4.987,0.201,6.684,11.933,0.000,0.000,0.000,0.000,18.618,No
! <People Internal Gains - Nominal>,Name,Schedule Name,Zone Name,Zone Floor Area {m2},# Zone Occupants,Number of People {},People/Floor Area {person/m2},Floor Area per person {m2/person},Fraction Radiant,Fraction Convected,Sensible Fraction Calculation,Activity level,ASHRAE 55 Warnings,Carbon Dioxide Generation Rate,Nominal Minimum Number of People,Nominal Maximum Number of People 
 People Internal Gains, CHILD2_BATH1,CHILD2_BATH1_PRESENCE_,BATH1,6.78,5.0,1.0,0.147,6.784,0.660,0.340,AutoCalculate,CHILD2_BATH1_METABOLISM_,No,3.8200E-008,0,1
 People Internal Gains, CHILD1_BATH1,CHILD1_BATH1_PRESENCE_,BATH1,6.78,5.0,1.0,0.147,6.784,0.660,0.340,AutoCalculate,CHILD1_BATH1_METABOLISM_,No,3.8200E-008,0,1
 People Internal Gains, WORKINGADULT2_BATH1,WORKINGADULT2_BATH1_PRESENCE_,BATH1,6.78,5.0,1.0,0.147,6.784,0.660,0.340,AutoCalculate,WORKINGADULT2_BATH1_METABOLISM_,No,3.8200E-008,0,1
 People Internal Gains, WORKINGADULT1_BATH1,WORKINGADULT1_BATH1_PRESENCE_,BATH1,6.78,5.0,1.0,0.147,6.784,0.660,0.340,AutoCalculate,WORKINGADULT1_BATH1_METABOLISM_,No,3.8200E-008,0,1
 People Internal Gains, CHILD3_BATH1,CHILD3_BATH1_PRESENCE_,BATH1,6.78,5.0,1.0,0.147,6.784,0.660,0.340,AutoCalculate,CHILD3_BATH1_METABOLISM_,No,3.8200E-008,0,1
 People Internal Gains, CHILD1_BEDROOM2,CHILD1_BEDROOM2_PRESENCE_,BEDROOM2,13.64,1.0,1.0,7.334E-002,13.635,0.660,0.340,AutoCalculate,CHILD1_BEDROOM2_METABOLISM_,No,3.8200E-008,0,1
 People Internal Gains, WORKINGADULT1_BEDROOM1,WORKINGADULT1_BEDROOM1_PRESENCE_,BEDROOM1,17.38,2.0,1.0,5.752E-002,17.385,0.660,0.340,AutoCalculate,WORKINGADULT1_BEDROOM1_METABOLISM_,No,3.8200E-008,0,1
 People Internal Gains, CHILD2_BEDROOM3,CHILD2_BEDROOM3_PRESENCE_,BEDROOM3,7.54,2.0,1.0,0.133,7.538,0.660,0.340,AutoCalculate,CHILD2_BEDROOM3_METABOLISM_,No,3.8200E-008,0,1
 People Internal Gains, CHILD3_BEDROOM3,CHILD3_BEDROOM3_PRESENCE_,BEDROOM3,7.54,2.0,1.0,0.133,7.538,0.660,0.340,AutoCalculate,CHILD3_BEDROOM3_METABOLISM_,No,3.8200E-008,0,1
 People Internal Gains, WORKINGADULT2_BEDROOM1,WORKINGADULT2_BEDROOM1_PRESENCE_,BEDROOM1,17.38,2.0,1.0,5.752E-002,17.385,0.660,0.340,AutoCalculate,WORKINGADULT2_BEDROOM1_METABOLISM_,No,3.8200E-008,0,1
 People Internal Gains, WORKINGADULT2_KITCHEN,WORKINGADULT2_KITCHEN_PRESENCE_,KITCHEN,11.52,1.0,1.0,8.681E-002,11.520,0.660,0.340,AutoCalculate,WORKINGADULT2_KITCHEN_METABOLISM_,No,3.8200E-008,0,1
 People Internal Gains, CHILD1_LIVING,CHILD1_LIVING_PRESENCE_,LIVING,14.96,3.0,1.0,6.684E-002,14.960,0.660,0.340,AutoCalculate,CHILD1_LIVING_METABOLISM_,No,3.8200E-008,0,1
 People Internal Gains, WORKINGADULT1_LIVING,WORKINGADULT1_LIVING_PRESENCE_,LIVING,14.96,3.0,1.0,6.684E-002,14.960,0.660,0.340,AutoCalculate,WORKINGADULT1_LIVING_METABOLISM_,No,3.8200E-008,0,1
 People Internal Gains, WORKINGADULT2_LIVING,WORKINGADULT2_LIVING_PRESENCE_,LIVING,14.96,3.0,1.0,6.684E-002,14.960,0.660,0.340,AutoCalculate,WORKINGADULT2_LIVING_METABOLISM_,No,3.8200E-008,0,1
! <Lights Internal Gains - Nominal>,Name,Schedule Name,Zone Name,Zone Floor Area {m2},# Zone Occupants,Lighting Level {W},Lights/Floor Area {W/m2},Lights per person {W/person},Fraction Return Air,Fraction Radiant,Fraction Short Wave,Fraction Convected,Fraction Replaceable,End-Use Category,Nominal Minimum Lighting Level {W},Nominal Maximum Lighting Level {W}
 Lights Internal Gains, BEDROOM2_CHILD1_BEDROOM2_APPLIANCE_LIGHTS_LIGHTS,CHILD1_BEDROOM2_APPLIANCE_LIGHTS,BEDROOM2,13.64,1.0,100.000,7.334,100.000,0.000,0.000,0.000,1.000,1.000,General,0.000,100.000
 Lights Internal Gains, BATH1_WORKINGADULT1_BATH1_APPLIANCE_LIGHTS_LIGHTS,WORKINGADULT1_BATH1_APPLIANCE_LIGHTS,BATH1,6.78,5.0,100.000,14.741,20.000,0.000,0.000,0.000,1.000,1.000,General,0.000,100.000
 Lights Internal Gains, BATH1_WORKINGADULT2_BATH1_APPLIANCE_LIGHTS_LIGHTS,WORKINGADULT2_BATH1_APPLIANCE_LIGHTS,BATH1,6.78,5.0,100.000,14.741,20.000,0.000,0.000,0.000,1.000,1.000,General,0.000,100.000
 Lights Internal Gains, BATH1_CHILD1_BATH1_APPLIANCE_LIGHTS_LIGHTS,CHILD1_BATH1_APPLIANCE_LIGHTS,BATH1,6.78,5.0,100.000,14.741,20.000,0.000,0.000,0.000,1.000,1.000,General,0.000,100.000
 Lights Internal Gains, BATH1_CHILD2_BATH1_APPLIANCE_LIGHTS_LIGHTS,CHILD2_BATH1_APPLIANCE_LIGHTS,BATH1,6.78,5.0,100.000,14.741,20.000,0.000,0.000,0.000,1.000,1.000,General,0.000,100.000
 Lights Internal Gains, BATH1_CHILD3_BATH1_APPLIANCE_LIGHTS_LIGHTS,CHILD3_BATH1_APPLIANCE_LIGHTS,BATH1,6.78,5.0,100.000,14.741,20.000,0.000,0.000,0.000,1.000,1.000,General,0.000,100.000
 Lights Internal Gains, BEDROOM1_WORKINGADULT1_BEDROOM1_APPLIANCE_LIGHTS_LIGHTS,WORKINGADULT1_BEDROOM1_APPLIANCE_LIGHTS,BEDROOM1,17.38,2.0,100.000,5.752,50.000,0.000,0.000,0.000,1.000,1.000,General,0.000,100.000
 Lights Internal Gains, KITCHEN_WORKINGADULT2_KITCHEN_APPLIANCE_LIGHTS_LIGHTS,WORKINGADULT2_KITCHEN_APPLIANCE_LIGHTS,KITCHEN,11.52,1.0,100.000,8.681,100.000,0.000,0.000,0.000,1.000,1.000,General,0.000,100.000
 Lights Internal Gains, BEDROOM3_CHILD2_BEDROOM3_APPLIANCE_LIGHTS_LIGHTS,CHILD2_BEDROOM3_APPLIANCE_LIGHTS,BEDROOM3,7.54,2.0,100.000,13.267,50.000,0.000,0.000,0.000,1.000,1.000,General,0.000,100.000
 Lights Internal Gains, LIVING_WORKINGADULT1_LIVING_APPLIANCE_LIGHTS_LIGHTS,WORKINGADULT1_LIVING_APPLIANCE_LIGHTS,LIVING,14.96,3.0,100.000,6.684,33.333,0.000,0.000,0.000,1.000,1.000,General,0.000,100.000
! <ElectricEquipment Internal Gains - Nominal>,Name,Schedule Name,Zone Name,Zone Floor Area {m2},# Zone Occupants,Equipment Level {W},Equipment/Floor Area {W/m2},Equipment per person {W/person},Fraction Latent,Fraction Radiant,Fraction Lost,Fraction Convected,End-Use SubCategory,Nominal Minimum Equipment Level {W},Nominal Maximum Equipment Level {W}
 ElectricEquipment Internal Gains, BATH1_WORKINGADULT1_BATH1_APPLIANCE_CIBSE_SHOWER_MOISTURE_CIBSE_SHOWER_MOISTURE,WORKINGADULT1_BATH1_APPLIANCE_CIBSE_SHOWER_MOISTURE,BATH1,6.78,5.0,1.316,0.194,0.263,1.000,0.000,0.000,0.000,General,0.000,1.316
 ElectricEquipment Internal Gains, BATH1_WORKINGADULT2_BATH1_APPLIANCE_CIBSE_SHOWER_MOISTURE_CIBSE_SHOWER_MOISTURE,WORKINGADULT2_BATH1_APPLIANCE_CIBSE_SHOWER_MOISTURE,BATH1,6.78,5.0,1.316,0.194,0.263,1.000,0.000,0.000,0.000,General,0.000,1.316
 ElectricEquipment Internal Gains, BATH1_WORKINGADULT2_BATH1_APPLIANCE_NIST_HAIRDRYER_NIST_HAIRDRYER,WORKINGADULT2_BATH1_APPLIANCE_NIST_HAIRDRYER,BATH1,6.78,5.0,1875.000,276.396,375.000,0.160,0.367,0.106,0.367,General,0.000,1875.000
 ElectricEquipment Internal Gains, BATH1_CHILD1_BATH1_APPLIANCE_CIBSE_SHOWER_MOISTURE_CIBSE_SHOWER_MOISTURE,CHILD1_BATH1_APPLIANCE_CIBSE_SHOWER_MOISTURE,BATH1,6.78,5.0,1.316,0.194,0.263,1.000,0.000,0.000,0.000,General,0.000,1.316
 ElectricEquipment Internal Gains, BATH1_CHILD2_BATH1_APPLIANCE_CIBSE_SHOWER_MOISTURE_CIBSE_SHOWER_MOISTURE,CHILD2_BATH1_APPLIANCE_CIBSE_SHOWER_MOISTURE,BATH1,6.78,5.0,1.316,0.194,0.263,1.000,0.000,0.000,0.000,General,0.000,1.316
 ElectricEquipment Internal Gains, BATH1_CHILD3_BATH1_APPLIANCE_CIBSE_SHOWER_MOISTURE_CIBSE_SHOWER_MOISTURE,CHILD3_BATH1_APPLIANCE_CIBSE_SHOWER_MOISTURE,BATH1,6.78,5.0,1.316,0.194,0.263,1.000,0.000,0.000,0.000,General,0.000,1.316
 ElectricEquipment Internal Gains, BEDROOM1_WORKINGADULT1_BEDROOM1_APPLIANCE_NIST_MOBILEPHONES_NIST_MOBILEPHONES,WORKINGADULT1_BEDROOM1_APPLIANCE_NIST_MOBILEPHONES,BEDROOM1,17.38,2.0,17.720,1.019,8.860,0.160,0.367,0.106,0.367,General,0.000,17.720
 ElectricEquipment Internal Gains, BEDROOM1_WORKINGADULT2_BEDROOM1_APPLIANCE_NIST_MOBILEPHONES_NIST_MOBILEPHONES,WORKINGADULT2_BEDROOM1_APPLIANCE_NIST_MOBILEPHONES,BEDROOM1,17.38,2.0,17.720,1.019,8.860,0.160,0.367,0.106,0.367,General,0.000,17.720
 ElectricEquipment Internal Gains, KITCHEN_WORKINGADULT2_KITCHEN_APPLIANCE_NIST_HOB_NIST_HOB,WORKINGADULT2_KITCHEN_APPLIANCE_NIST_HOB,KITCHEN,11.52,1.0,3600.000,312.500,3600.000,0.300,0.200,0.300,0.200,General,0.000,3600.000
 ElectricEquipment Internal Gains, KITCHEN_WORKINGADULT2_KITCHEN_APPLIANCE_NIST_OVEN_NIST_OVEN,WORKINGADULT2_KITCHEN_APPLIANCE_NIST_OVEN,KITCHEN,11.52,1.0,5100.000,442.708,5100.000,0.300,0.200,0.300,0.200,General,0.000,5100.000
 ElectricEquipment Internal Gains, KITCHEN_WORKINGADULT2_KITCHEN_APPLIANCE_CIBSE_COOK_MOISTURE_CIBSE_COOK_MOISTURE,WORKINGADULT2_KITCHEN_APPLIANCE_CIBSE_COOK_MOISTURE,KITCHEN,11.52,1.0,0.836,7.254E-002,0.836,1.000,0.000,0.000,0.000,General,0.000,0.836
 ElectricEquipment Internal Gains, KITCHEN_HPRU_ROUTINE_KITCHEN_APPLIANCE_NIST_FRIDGE_NIST_FRIDGE,HPRU_ROUTINE_KITCHEN_APPLIANCE_NIST_FRIDGE,KITCHEN,11.52,1.0,46.000,3.993,46.000,0.000,0.500,0.000,0.500,General,46.000,46.000
 ElectricEquipment Internal Gains, KITCHEN_HPRU_ROUTINE_KITCHEN_APPLIANCE_NIST_WASHINGMACHINE_NIST_WASHINGMACHINE,HPRU_ROUTINE_KITCHEN_APPLIANCE_NIST_WASHINGMACHINE,KITCHEN,11.52,1.0,500.000,43.403,500.000,0.000,0.400,0.200,0.400,General,0.000,500.000
 ElectricEquipment Internal Gains, KITCHEN_HPRU_ROUTINE_KITCHEN_APPLIANCE_NIST_DISHWASHER_NIST_DISHWASHER,HPRU_ROUTINE_KITCHEN_APPLIANCE_NIST_DISHWASHER,KITCHEN,11.52,1.0,1090.000,94.618,1090.000,0.150,0.300,0.250,0.300,General,0.000,1090.000
 ElectricEquipment Internal Gains, LIVING_WORKINGADULT1_LIVING_APPLIANCE_NIST_TV_NIST_TV,WORKINGADULT1_LIVING_APPLIANCE_NIST_TV,LIVING,14.96,3.0,62.200,4.158,20.733,0.160,0.367,0.106,0.367,General,0.000,62.200
 ElectricEquipment Internal Gains, LIVING_WORKINGADULT1_LIVING_APPLIANCE_NIST_MOBILEPHONES_NIST_MOBILEPHONES,WORKINGADULT1_LIVING_APPLIANCE_NIST_MOBILEPHONES,LIVING,14.96,3.0,17.720,1.184,5.907,0.160,0.367,0.106,0.367,General,0.000,17.720
 ElectricEquipment Internal Gains, LIVING_WORKINGADULT2_LIVING_APPLIANCE_NIST_MOBILEPHONES_NIST_MOBILEPHONES,WORKINGADULT2_LIVING_APPLIANCE_NIST_MOBILEPHONES,LIVING,14.96,3.0,17.720,1.184,5.907,0.160,0.367,0.106,0.367,General,0.000,17.720
 ElectricEquipment Internal Gains, LIVING_HPRU_ROUTINE_LIVING_APPLIANCE_TV-STANDBY_TV-STANDBY,HPRU_ROUTINE_LIVING_APPLIANCE_TV-STANDBY,LIVING,14.96,3.0,20.000,1.337,6.667,0.000,0.500,0.000,0.500,General,20.000,20.000
 ElectricEquipment Internal Gains, LIVING_HPRU_ROUTINE_LIVING_APPLIANCE_NIST_LAPTOP_NIST_LAPTOP,HPRU_ROUTINE_LIVING_APPLIANCE_NIST_LAPTOP,LIVING,14.96,3.0,36.880,2.465,12.293,0.160,0.367,0.106,0.367,General,0.000,36.880
 ElectricEquipment Internal Gains, LIVING_HPRU_ROUTINE_LIVING_APPLIANCE_NIST_WIRELESSROUTER_NIST_WIRELESSROUTER,HPRU_ROUTINE_LIVING_APPLIANCE_NIST_WIRELESSROUTER,LIVING,14.96,3.0,24.000,1.604,8.000,0.160,0.367,0.106,0.367,General,24.000,24.000
! <Shadowing/Sun Position Calculations> [Annual Simulations], Calculation Method,Value {days}, Allowable Number Figures in Shadow Overlap {}, Polygon Clipping Algorithm, Sky Diffuse Modeling Algorithm
Shadowing/Sun Position Calculations,AverageOverDaysInFrequency,20,15000,SutherlandHodgman,SimpleSkyDiffuseModeling
! <HAMT cells>, Surface Name, Construction Name, Cell Numbers
! <HAMT origins>, Surface Name, Construction Name, Cell origins (m) 
HAMT cells, STAIRCASE_L1,SINGLE_BRICK_INTERNAL_WALL,   1,   2,   3,   4,   5,   6,   7,   8,   9,  10,  11,  12,  13,  14,  15,  16,  17,  18,  19,  20,  21,  22
HAMT origins,STAIRCASE_L1,SINGLE_BRICK_INTERNAL_WALL, 0.0000000, 0.0004775, 0.0022049, 0.0050000, 0.0077951, 0.0095225, 0.0112236, 0.0159982, 0.0250799, 0.0375799, 0.0522746, 0.0677254, 0.0824201, 0.0949201, 0.1040018, 0.1087764, 0.1104775, 0.1122049, 0.1150000, 0.1177951, 0.1195225, 0.1200000
HAMT cells, STAIRCASE_DOOR_TOPHALL,WOODEN_DOOR,   1,   2,   3,   4,   5,   6,   7,   8,   9,  10,  11,  12
HAMT origins,STAIRCASE_DOOR_TOPHALL,WOODEN_DOOR, 0.0000000, 0.0004894, 0.0023993, 0.0060320, 0.0110320, 0.0169098, 0.0230902, 0.0289680, 0.0339680, 0.0376007, 0.0395106, 0.0400000
HAMT cells, STAIRCASE_L2,SINGLE_BRICK_INTERNAL_WALL,   1,   2,   3,   4,   5,   6,   7,   8,   9,  10,  11,  12,  13,  14,  15,  16,  17,  18,  19,  20,  21,  22
HAMT origins,STAIRCASE_L2,SINGLE_BRICK_INTERNAL_WALL, 0.0000000, 0.0004775, 0.0022049, 0.0050000, 0.0077951, 0.0095225, 0.0112236, 0.0159982, 0.0250799, 0.0375799, 0.0522746, 0.0677254, 0.0824201, 0.0949201, 0.1040018, 0.1087764, 0.1104775, 0.1122049, 0.1150000, 0.1177951, 0.1195225, 0.1200000
HAMT cells, STAIRCASE_L3,SINGLE_BRICK_INTERNAL_WALL,   1,   2,   3,   4,   5,   6,   7,   8,   9,  10,  11,  12,  13,  14,  15,  16,  17,  18,  19,  20,  21,  22
HAMT origins,STAIRCASE_L3,SINGLE_BRICK_INTERNAL_WALL, 0.0000000, 0.0004775, 0.0022049, 0.0050000, 0.0077951, 0.0095225, 0.0112236, 0.0159982, 0.0250799, 0.0375799, 0.0522746, 0.0677254, 0.0824201, 0.0949201, 0.1040018, 0.1087764, 0.1104775, 0.1122049, 0.1150000, 0.1177951, 0.1195225, 0.1200000
HAMT cells, STAIRCASE_L4,SOLID_BRICK_RANDOMU,   1,   2,   3,   4,   5,   6,   7,   8,   9,  10,  11,  12,  13,  14,  15,  16,  17,  18,  19,  20,  21,  22,  23
HAMT origins,STAIRCASE_L4,SOLID_BRICK_RANDOMU, 0.0000000, 0.0013459, 0.0065980, 0.0165879, 0.0303379, 0.0465020, 0.0634980, 0.0796621, 0.0934121, 0.1034020, 0.1086541, 0.1105106, 0.1124163, 0.1157171, 0.1195285, 0.1228293, 0.1247350, 0.1257231, 0.1274505, 0.1302456, 0.1330407, 0.1347682, 0.1352456
HAMT cells, STAIRCASE_L1_QA100,SINGLE_BRICK_INTERNAL_WALL,   1,   2,   3,   4,   5,   6,   7,   8,   9,  10,  11,  12,  13,  14,  15,  16,  17,  18,  19,  20,  21,  22
HAMT origins,STAIRCASE_L1_QA100,SINGLE_BRICK_INTERNAL_WALL, 0.0000000, 0.0004775, 0.0022049, 0.0050000, 0.0077951, 0.0095225, 0.0112236, 0.0159982, 0.0250799, 0.0375799, 0.0522746, 0.0677254, 0.0824201, 0.0949201, 0.1040018, 0.1087764, 0.1104775, 0.1122049, 0.1150000, 0.1177951, 0.1195225, 0.1200000
HAMT cells, STAIRCASE_L2_QC001,SINGLE_BRICK_INTERNAL_WALL,   1,   2,   3,   4,   5,   6,   7,   8,   9,  10,  11,  12,  13,  14,  15,  16,  17,  18,  19,  20,  21,  22
HAMT origins,STAIRCASE_L2_QC001,SINGLE_BRICK_INTERNAL_WALL, 0.0000000, 0.0004775, 0.0022049, 0.0050000, 0.0077951, 0.0095225, 0.0112236, 0.0159982, 0.0250799, 0.0375799, 0.0522746, 0.0677254, 0.0824201, 0.0949201, 0.1040018, 0.1087764, 0.1104775, 0.1122049, 0.1150000, 0.1177951, 0.1195225, 0.1200000
HAMT cells, STAIRCASE_L3_QA100,SINGLE_BRICK_INTERNAL_WALL,   1,   2,   3,   4,   5,   6,   7,   8,   9,  10,  11,  12,  13,  14,  15,  16,  17,  18,  19,  20,  21,  22
HAMT origins,STAIRCASE_L3_QA100,SINGLE_BRICK_INTERNAL_WALL, 0.0000000, 0.0004775, 0.0022049, 0.0050000, 0.0077951, 0.0095225, 0.0112236, 0.0159982, 0.0250799, 0.0375799, 0.0522746, 0.0677254, 0.0824201, 0.0949201, 0.1040018, 0.1087764, 0.1104775, 0.1122049, 0.1150000, 0.1177951, 0.1195225, 0.1200000
HAMT cells, STAIRCASE_DOOR_HALL,WOODEN_DOOR,   1,   2,   3,   4,   5,   6,   7,   8,   9,  10,  11,  12
HAMT origins,STAIRCASE_DOOR_HALL,WOODEN_DOOR, 0.0000000, 0.0004894, 0.0023993, 0.0060320, 0.0110320, 0.0169098, 0.0230902, 0.0289680, 0.0339680, 0.0376007, 0.0395106, 0.0400000
HAMT cells, STAIRCASE_L4_PU,SOLID_BRICK_RANDOMU,   1,   2,   3,   4,   5,   6,   7,   8,   9,  10,  11,  12,  13,  14,  15,  16,  17,  18,  19,  20,  21,  22,  23
HAMT origins,STAIRCASE_L4_PU,SOLID_BRICK_RANDOMU, 0.0000000, 0.0013459, 0.0065980, 0.0165879, 0.0303379, 0.0465020, 0.0634980, 0.0796621, 0.0934121, 0.1034020, 0.1086541, 0.1105106, 0.1124163, 0.1157171, 0.1195285, 0.1228293, 0.1247350, 0.1257231, 0.1274505, 0.1302456, 0.1330407, 0.1347682, 0.1352456
HAMT cells, STAIRCASE_L4_PD,SOLID_BRICK_RANDOMU,   1,   2,   3,   4,   5,   6,   7,   8,   9,  10,  11,  12,  13,  14,  15,  16,  17,  18,  19,  20,  21,  22,  23
HAMT origins,STAIRCASE_L4_PD,SOLID_BRICK_RANDOMU, 0.0000000, 0.0013459, 0.0065980, 0.0165879, 0.0303379, 0.0465020, 0.0634980, 0.0796621, 0.0934121, 0.1034020, 0.1086541, 0.1105106, 0.1124163, 0.1157171, 0.1195285, 0.1228293, 0.1247350, 0.1257231, 0.1274505, 0.1302456, 0.1330407, 0.1347682, 0.1352456
HAMT cells, STAIRCASE_FLOOR,SUSPENDED_WOODEN_FLOOR,   1,   2,   3,   4,   5,   6,   7,   8,   9,  10,  11,  12,  13,  14,  15,  16,  17,  18,  19,  20,  21,  22,  23,  24,  25,  26,  27
HAMT origins,STAIRCASE_FLOOR,SUSPENDED_WOODEN_FLOOR, 0.0000000, 0.0004775, 0.0022049, 0.0050000, 0.0077951, 0.0095225, 0.0112236, 0.0159982, 0.0250799, 0.0375799, 0.0522746, 0.0677254, 0.0824201, 0.0949201, 0.1040018, 0.1087764, 0.1106118, 0.1129991, 0.1175400, 0.1237900, 0.1311373, 0.1388627, 0.1462100, 0.1524600, 0.1570009, 0.1593882, 0.1600000
HAMT cells, STAIRCASE_FLOOR_QC010,SUSPENDED_WOODEN_FLOOR,   1,   2,   3,   4,   5,   6,   7,   8,   9,  10,  11,  12,  13,  14,  15,  16,  17,  18,  19,  20,  21,  22,  23,  24,  25,  26,  27
HAMT origins,STAIRCASE_FLOOR_QC010,SUSPENDED_WOODEN_FLOOR, 0.0000000, 0.0004775, 0.0022049, 0.0050000, 0.0077951, 0.0095225, 0.0112236, 0.0159982, 0.0250799, 0.0375799, 0.0522746, 0.0677254, 0.0824201, 0.0949201, 0.1040018, 0.1087764, 0.1106118, 0.1129991, 0.1175400, 0.1237900, 0.1311373, 0.1388627, 0.1462100, 0.1524600, 0.1570009, 0.1593882, 0.1600000
HAMT cells, STAIRCASE_CEILING,LOFTCEILING_RANDOMU,   1,   2,   3,   4,   5,   6,   7,   8,   9,  10,  11,  12,  13,  14,  15,  16,  17,  18,  19,  20,  21,  22,  23,  24,  25,  26,  27
HAMT origins,STAIRCASE_CEILING,LOFTCEILING_RANDOMU, 0.0000000, 0.0004775, 0.0022049, 0.0050000, 0.0077951, 0.0095225, 0.0129079, 0.0242550, 0.0458383, 0.0755453, 0.1104679, 0.1471877, 0.1821103, 0.2118173, 0.2334007, 0.2447477, 0.2482524, 0.2504118, 0.2539056, 0.2573995, 0.2595588, 0.2606331, 0.2623605, 0.2651556, 0.2679507, 0.2696782, 0.2701556
HAMT cells, DINING_L1,SOLID_BRICK_RANDOMU,   1,   2,   3,   4,   5,   6,   7,   8,   9,  10,  11,  12,  13,  14,  15,  16,  17,  18,  19,  20,  21,  22,  23
HAMT origins,DINING_L1,SOLID_BRICK_RANDOMU, 0.0000000, 0.0013459, 0.0065980, 0.0165879, 0.0303379, 0.0465020, 0.0634980, 0.0796621, 0.0934121, 0.1034020, 0.1086541, 0.1105106, 0.1124163, 0.1157171, 0.1195285, 0.1228293, 0.1247350, 0.1257231, 0.1274505, 0.1302456, 0.1330407, 0.1347682, 0.1352456
HAMT cells, DINING_L2,SOLID_BRICK_RANDOMU,   1,   2,   3,   4,   5,   6,   7,   8,   9,  10,  11,  12,  13,  14,  15,  16,  17,  18,  19,  20,  21,  22,  23
HAMT origins,DINING_L2,SOLID_BRICK_RANDOMU, 0.0000000, 0.0013459, 0.0065980, 0.0165879, 0.0303379, 0.0465020, 0.0634980, 0.0796621, 0.0934121, 0.1034020, 0.1086541, 0.1105106, 0.1124163, 0.1157171, 0.1195285, 0.1228293, 0.1247350, 0.1257231, 0.1274505, 0.1302456, 0.1330407, 0.1347682, 0.1352456
HAMT cells, DINING_L3,SINGLE_BRICK_INTERNAL_WALL,   1,   2,   3,   4,   5,   6,   7,   8,   9,  10,  11,  12,  13,  14,  15,  16,  17,  18,  19,  20,  21,  22
HAMT origins,DINING_L3,SINGLE_BRICK_INTERNAL_WALL, 0.0000000, 0.0004775, 0.0022049, 0.0050000, 0.0077951, 0.0095225, 0.0112236, 0.0159982, 0.0250799, 0.0375799, 0.0522746, 0.0677254, 0.0824201, 0.0949201, 0.1040018, 0.1087764, 0.1104775, 0.1122049, 0.1150000, 0.1177951, 0.1195225, 0.1200000
HAMT cells, DINING_L4,SINGLE_BRICK_INTERNAL_WALL,   1,   2,   3,   4,   5,   6,   7,   8,   9,  10,  11,  12,  13,  14,  15,  16,  17,  18,  19,  20,  21,  22
HAMT origins,DINING_L4,SINGLE_BRICK_INTERNAL_WALL, 0.0000000, 0.0004775, 0.0022049, 0.0050000, 0.0077951, 0.0095225, 0.0112236, 0.0159982, 0.0250799, 0.0375799, 0.0522746, 0.0677254, 0.0824201, 0.0949201, 0.1040018, 0.1087764, 0.1104775, 0.1122049, 0.1150000, 0.1177951, 0.1195225, 0.1200000
HAMT cells, DINING_DOOR_HALL,WOODEN_DOOR,   1,   2,   3,   4,   5,   6,   7,   8,   9,  10,  11,  12
HAMT origins,DINING_DOOR_HALL,WOODEN_DOOR, 0.0000000, 0.0004894, 0.0023993, 0.0060320, 0.0110320, 0.0169098, 0.0230902, 0.0289680, 0.0339680, 0.0376007, 0.0395106, 0.0400000
HAMT cells, DINING_L4_QC010,SINGLE_BRICK_INTERNAL_WALL,   1,   2,   3,   4,   5,   6,   7,   8,   9,  10,  11,  12,  13,  14,  15,  16,  17,  18,  19,  20,  21,  22
HAMT origins,DINING_L4_QC010,SINGLE_BRICK_INTERNAL_WALL, 0.0000000, 0.0004775, 0.0022049, 0.0050000, 0.0077951, 0.0095225, 0.0112236, 0.0159982, 0.0250799, 0.0375799, 0.0522746, 0.0677254, 0.0824201, 0.0949201, 0.1040018, 0.1087764, 0.1104775, 0.1122049, 0.1150000, 0.1177951, 0.1195225, 0.1200000
HAMT cells, DINING_L1_PU,SOLID_BRICK_RANDOMU,   1,   2,   3,   4,   5,   6,   7,   8,   9,  10,  11,  12,  13,  14,  15,  16,  17,  18,  19,  20,  21,  22,  23
HAMT origins,DINING_L1_PU,SOLID_BRICK_RANDOMU, 0.0000000, 0.0013459, 0.0065980, 0.0165879, 0.0303379, 0.0465020, 0.0634980, 0.0796621, 0.0934121, 0.1034020, 0.1086541, 0.1105106, 0.1124163, 0.1157171, 0.1195285, 0.1228293, 0.1247350, 0.1257231, 0.1274505, 0.1302456, 0.1330407, 0.1347682, 0.1352456
HAMT cells, DINING_L1_PD,SOLID_BRICK_RANDOMU,   1,   2,   3,   4,   5,   6,   7,   8,   9,  10,  11,  12,  13,  14,  15,  16,  17,  18,  19,  20,  21,  22,  23
HAMT origins,DINING_L1_PD,SOLID_BRICK_RANDOMU, 0.0000000, 0.0013459, 0.0065980, 0.0165879, 0.0303379, 0.0465020, 0.0634980, 0.0796621, 0.0934121, 0.1034020, 0.1086541, 0.1105106, 0.1124163, 0.1157171, 0.1195285, 0.1228293, 0.1247350, 0.1257231, 0.1274505, 0.1302456, 0.1330407, 0.1347682, 0.1352456
HAMT cells, DINING_FLOOR,SUSPENDED_WOODEN_FLOOR,   1,   2,   3,   4,   5,   6,   7,   8,   9,  10,  11,  12,  13,  14,  15,  16,  17,  18,  19,  20,  21,  22,  23,  24,  25,  26,  27
HAMT origins,DINING_FLOOR,SUSPENDED_WOODEN_FLOOR, 0.0000000, 0.0004775, 0.0022049, 0.0050000, 0.0077951, 0.0095225, 0.0112236, 0.0159982, 0.0250799, 0.0375799, 0.0522746, 0.0677254, 0.0824201, 0.0949201, 0.1040018, 0.1087764, 0.1106118, 0.1129991, 0.1175400, 0.1237900, 0.1311373, 0.1388627, 0.1462100, 0.1524600, 0.1570009, 0.1593882, 0.1600000
HAMT cells, DINING_CEILING,SUSPENDED_WOODEN_CEILING,   1,   2,   3,   4,   5,   6,   7,   8,   9,  10,  11,  12,  13,  14,  15,  16,  17,  18,  19,  20,  21,  22,  23,  24,  25,  26,  27
HAMT origins,DINING_CEILING,SUSPENDED_WOODEN_CEILING, 0.0000000, 0.0006118, 0.0029991, 0.0075400, 0.0137900, 0.0211373, 0.0288627, 0.0362100, 0.0424600, 0.0470009, 0.0493882, 0.0512236, 0.0559982, 0.0650799, 0.0775799, 0.0922746, 0.1077254, 0.1224201, 0.1349201, 0.1440018, 0.1487764, 0.1504775, 0.1522049, 0.1550000, 0.1577951, 0.1595225, 0.1600000
HAMT cells, DINING_CEILING_QC010,SUSPENDED_WOODEN_CEILING,   1,   2,   3,   4,   5,   6,   7,   8,   9,  10,  11,  12,  13,  14,  15,  16,  17,  18,  19,  20,  21,  22,  23,  24,  25,  26,  27
HAMT origins,DINING_CEILING_QC010,SUSPENDED_WOODEN_CEILING, 0.0000000, 0.0006118, 0.0029991, 0.0075400, 0.0137900, 0.0211373, 0.0288627, 0.0362100, 0.0424600, 0.0470009, 0.0493882, 0.0512236, 0.0559982, 0.0650799, 0.0775799, 0.0922746, 0.1077254, 0.1224201, 0.1349201, 0.1440018, 0.1487764, 0.1504775, 0.1522049, 0.1550000, 0.1577951, 0.1595225, 0.1600000
HAMT cells, CELLAR_L1,SOLID_BRICK_RANDOMU,   1,   2,   3,   4,   5,   6,   7,   8,   9,  10,  11,  12,  13,  14,  15,  16,  17,  18,  19,  20,  21,  22,  23
HAMT origins,CELLAR_L1,SOLID_BRICK_RANDOMU, 0.0000000, 0.0013459, 0.0065980, 0.0165879, 0.0303379, 0.0465020, 0.0634980, 0.0796621, 0.0934121, 0.1034020, 0.1086541, 0.1105106, 0.1124163, 0.1157171, 0.1195285, 0.1228293, 0.1247350, 0.1257231, 0.1274505, 0.1302456, 0.1330407, 0.1347682, 0.1352456
HAMT cells, CELLAR_L2,SOLID_BRICK_RANDOMU,   1,   2,   3,   4,   5,   6,   7,   8,   9,  10,  11,  12,  13,  14,  15,  16,  17,  18,  19,  20,  21,  22,  23
HAMT origins,CELLAR_L2,SOLID_BRICK_RANDOMU, 0.0000000, 0.0013459, 0.0065980, 0.0165879, 0.0303379, 0.0465020, 0.0634980, 0.0796621, 0.0934121, 0.1034020, 0.1086541, 0.1105106, 0.1124163, 0.1157171, 0.1195285, 0.1228293, 0.1247350, 0.1257231, 0.1274505, 0.1302456, 0.1330407, 0.1347682, 0.1352456
HAMT cells, CELLAR_L3,SOLID_BRICK_RANDOMU,   1,   2,   3,   4,   5,   6,   7,   8,   9,  10,  11,  12,  13,  14,  15,  16,  17,  18,  19,  20,  21,  22,  23
HAMT origins,CELLAR_L3,SOLID_BRICK_RANDOMU, 0.0000000, 0.0013459, 0.0065980, 0.0165879, 0.0303379, 0.0465020, 0.0634980, 0.0796621, 0.0934121, 0.1034020, 0.1086541, 0.1105106, 0.1124163, 0.1157171, 0.1195285, 0.1228293, 0.1247350, 0.1257231, 0.1274505, 0.1302456, 0.1330407, 0.1347682, 0.1352456
HAMT cells, CELLAR_L4,SOLID_BRICK_RANDOMU,   1,   2,   3,   4,   5,   6,   7,   8,   9,  10,  11,  12,  13,  14,  15,  16,  17,  18,  19,  20,  21,  22,  23
HAMT origins,CELLAR_L4,SOLID_BRICK_RANDOMU, 0.0000000, 0.0013459, 0.0065980, 0.0165879, 0.0303379, 0.0465020, 0.0634980, 0.0796621, 0.0934121, 0.1034020, 0.1086541, 0.1105106, 0.1124163, 0.1157171, 0.1195285, 0.1228293, 0.1247350, 0.1257231, 0.1274505, 0.1302456, 0.1330407, 0.1347682, 0.1352456
HAMT cells, CELLAR_FLOOR,FLOOR_RANDOMU,   1,   2,   3,   4,   5,   6,   7,   8,   9,  10,  11,  12,  13,  14,  15,  16,  17,  18,  19,  20,  21,  22,  23,  24,  25,  26
HAMT origins,CELLAR_FLOOR,FLOOR_RANDOMU, 0.0000000, 0.0061179, 0.0299908, 0.0753997, 0.1378997, 0.2113729, 0.2886271, 0.3621003, 0.4246003, 0.4700092, 0.4938821, 0.5004760, 0.5021010, 0.5043990, 0.5060240, 0.5077236, 0.5124982, 0.5215799, 0.5340799, 0.5487746, 0.5642254, 0.5789201, 0.5914201, 0.6005018, 0.6052764, 0.6065000
HAMT cells, CELLAR_CEILING,SUSPENDED_WOODEN_CEILING,   1,   2,   3,   4,   5,   6,   7,   8,   9,  10,  11,  12,  13,  14,  15,  16,  17,  18,  19,  20,  21,  22,  23,  24,  25,  26,  27
HAMT origins,CELLAR_CEILING,SUSPENDED_WOODEN_CEILING, 0.0000000, 0.0006118, 0.0029991, 0.0075400, 0.0137900, 0.0211373, 0.0288627, 0.0362100, 0.0424600, 0.0470009, 0.0493882, 0.0512236, 0.0559982, 0.0650799, 0.0775799, 0.0922746, 0.1077254, 0.1224201, 0.1349201, 0.1440018, 0.1487764, 0.1504775, 0.1522049, 0.1550000, 0.1577951, 0.1595225, 0.1600000
HAMT cells, CELLAR_CEILING_Q1,SUSPENDED_WOODEN_CEILING,   1,   2,   3,   4,   5,   6,   7,   8,   9,  10,  11,  12,  13,  14,  15,  16,  17,  18,  19,  20,  21,  22,  23,  24,  25,  26,  27
HAMT origins,CELLAR_CEILING_Q1,SUSPENDED_WOODEN_CEILING, 0.0000000, 0.0006118, 0.0029991, 0.0075400, 0.0137900, 0.0211373, 0.0288627, 0.0362100, 0.0424600, 0.0470009, 0.0493882, 0.0512236, 0.0559982, 0.0650799, 0.0775799, 0.0922746, 0.1077254, 0.1224201, 0.1349201, 0.1440018, 0.1487764, 0.1504775, 0.1522049, 0.1550000, 0.1577951, 0.1595225, 0.1600000
HAMT cells, CELLAR_CEILING_QA100,SUSPENDED_WOODEN_CEILING,   1,   2,   3,   4,   5,   6,   7,   8,   9,  10,  11,  12,  13,  14,  15,  16,  17,  18,  19,  20,  21,  22,  23,  24,  25,  26,  27
HAMT origins,CELLAR_CEILING_QA100,SUSPENDED_WOODEN_CEILING, 0.0000000, 0.0006118, 0.0029991, 0.0075400, 0.0137900, 0.0211373, 0.0288627, 0.0362100, 0.0424600, 0.0470009, 0.0493882, 0.0512236, 0.0559982, 0.0650799, 0.0775799, 0.0922746, 0.1077254, 0.1224201, 0.1349201, 0.1440018, 0.1487764, 0.1504775, 0.1522049, 0.1550000, 0.1577951, 0.1595225, 0.1600000
HAMT cells, CELLAR_CEILING_QA010,SUSPENDED_WOODEN_CEILING,   1,   2,   3,   4,   5,   6,   7,   8,   9,  10,  11,  12,  13,  14,  15,  16,  17,  18,  19,  20,  21,  22,  23,  24,  25,  26,  27
HAMT origins,CELLAR_CEILING_QA010,SUSPENDED_WOODEN_CEILING, 0.0000000, 0.0006118, 0.0029991, 0.0075400, 0.0137900, 0.0211373, 0.0288627, 0.0362100, 0.0424600, 0.0470009, 0.0493882, 0.0512236, 0.0559982, 0.0650799, 0.0775799, 0.0922746, 0.1077254, 0.1224201, 0.1349201, 0.1440018, 0.1487764, 0.1504775, 0.1522049, 0.1550000, 0.1577951, 0.1595225, 0.1600000
HAMT cells, CELLAR_CEILING_Q1_Q2,SUSPENDED_WOODEN_CEILING,   1,   2,   3,   4,   5,   6,   7,   8,   9,  10,  11,  12,  13,  14,  15,  16,  17,  18,  19,  20,  21,  22,  23,  24,  25,  26,  27
HAMT origins,CELLAR_CEILING_Q1_Q2,SUSPENDED_WOODEN_CEILING, 0.0000000, 0.0006118, 0.0029991, 0.0075400, 0.0137900, 0.0211373, 0.0288627, 0.0362100, 0.0424600, 0.0470009, 0.0493882, 0.0512236, 0.0559982, 0.0650799, 0.0775799, 0.0922746, 0.1077254, 0.1224201, 0.1349201, 0.1440018, 0.1487764, 0.1504775, 0.1522049, 0.1550000, 0.1577951, 0.1595225, 0.1600000
HAMT cells, CELLAR_CEILING_Q1_QC100,SUSPENDED_WOODEN_CEILING,   1,   2,   3,   4,   5,   6,   7,   8,   9,  10,  11,  12,  13,  14,  15,  16,  17,  18,  19,  20,  21,  22,  23,  24,  25,  26,  27
HAMT origins,CELLAR_CEILING_Q1_QC100,SUSPENDED_WOODEN_CEILING, 0.0000000, 0.0006118, 0.0029991, 0.0075400, 0.0137900, 0.0211373, 0.0288627, 0.0362100, 0.0424600, 0.0470009, 0.0493882, 0.0512236, 0.0559982, 0.0650799, 0.0775799, 0.0922746, 0.1077254, 0.1224201, 0.1349201, 0.1440018, 0.1487764, 0.1504775, 0.1522049, 0.1550000, 0.1577951, 0.1595225, 0.1600000
HAMT cells, CELLAR_CEILING_Q1_QC010,SUSPENDED_WOODEN_CEILING,   1,   2,   3,   4,   5,   6,   7,   8,   9,  10,  11,  12,  13,  14,  15,  16,  17,  18,  19,  20,  21,  22,  23,  24,  25,  26,  27
HAMT origins,CELLAR_CEILING_Q1_QC010,SUSPENDED_WOODEN_CEILING, 0.0000000, 0.0006118, 0.0029991, 0.0075400, 0.0137900, 0.0211373, 0.0288627, 0.0362100, 0.0424600, 0.0470009, 0.0493882, 0.0512236, 0.0559982, 0.0650799, 0.0775799, 0.0922746, 0.1077254, 0.1224201, 0.1349201, 0.1440018, 0.1487764, 0.1504775, 0.1522049, 0.1550000, 0.1577951, 0.1595225, 0.1600000
HAMT cells, CELLAR_CEILING_QA010_QA010,SUSPENDED_WOODEN_CEILING,   1,   2,   3,   4,   5,   6,   7,   8,   9,  10,  11,  12,  13,  14,  15,  16,  17,  18,  19,  20,  21,  22,  23,  24,  25,  26,  27
HAMT origins,CELLAR_CEILING_QA010_QA010,SUSPENDED_WOODEN_CEILING, 0.0000000, 0.0006118, 0.0029991, 0.0075400, 0.0137900, 0.0211373, 0.0288627, 0.0362100, 0.0424600, 0.0470009, 0.0493882, 0.0512236, 0.0559982, 0.0650799, 0.0775799, 0.0922746, 0.1077254, 0.1224201, 0.1349201, 0.1440018, 0.1487764, 0.1504775, 0.1522049, 0.1550000, 0.1577951, 0.1595225, 0.1600000
HAMT cells, CELLAR_CEILING_QA010_QB010,SUSPENDED_WOODEN_CEILING,   1,   2,   3,   4,   5,   6,   7,   8,   9,  10,  11,  12,  13,  14,  15,  16,  17,  18,  19,  20,  21,  22,  23,  24,  25,  26,  27
HAMT origins,CELLAR_CEILING_QA010_QB010,SUSPENDED_WOODEN_CEILING, 0.0000000, 0.0006118, 0.0029991, 0.0075400, 0.0137900, 0.0211373, 0.0288627, 0.0362100, 0.0424600, 0.0470009, 0.0493882, 0.0512236, 0.0559982, 0.0650799, 0.0775799, 0.0922746, 0.1077254, 0.1224201, 0.1349201, 0.1440018, 0.1487764, 0.1504775, 0.1522049, 0.1550000, 0.1577951, 0.1595225, 0.1600000
HAMT cells, CELLAR_CEILING_QA010_QC010,SUSPENDED_WOODEN_CEILING,   1,   2,   3,   4,   5,   6,   7,   8,   9,  10,  11,  12,  13,  14,  15,  16,  17,  18,  19,  20,  21,  22,  23,  24,  25,  26,  27
HAMT origins,CELLAR_CEILING_QA010_QC010,SUSPENDED_WOODEN_CEILING, 0.0000000, 0.0006118, 0.0029991, 0.0075400, 0.0137900, 0.0211373, 0.0288627, 0.0362100, 0.0424600, 0.0470009, 0.0493882, 0.0512236, 0.0559982, 0.0650799, 0.0775799, 0.0922746, 0.1077254, 0.1224201, 0.1349201, 0.1440018, 0.1487764, 0.1504775, 0.1522049, 0.1550000, 0.1577951, 0.1595225, 0.1600000
HAMT cells, CELLAR_CEILING_Q1_QC010_QA010,SUSPENDED_WOODEN_CEILING,   1,   2,   3,   4,   5,   6,   7,   8,   9,  10,  11,  12,  13,  14,  15,  16,  17,  18,  19,  20,  21,  22,  23,  24,  25,  26,  27
HAMT origins,CELLAR_CEILING_Q1_QC010_QA010,SUSPENDED_WOODEN_CEILING, 0.0000000, 0.0006118, 0.0029991, 0.0075400, 0.0137900, 0.0211373, 0.0288627, 0.0362100, 0.0424600, 0.0470009, 0.0493882, 0.0512236, 0.0559982, 0.0650799, 0.0775799, 0.0922746, 0.1077254, 0.1224201, 0.1349201, 0.1440018, 0.1487764, 0.1504775, 0.1522049, 0.1550000, 0.1577951, 0.1595225, 0.1600000
HAMT cells, CELLAR_CEILING_QA010_QA010_QA010,SUSPENDED_WOODEN_CEILING,   1,   2,   3,   4,   5,   6,   7,   8,   9,  10,  11,  12,  13,  14,  15,  16,  17,  18,  19,  20,  21,  22,  23,  24,  25,  26,  27
HAMT origins,CELLAR_CEILING_QA010_QA010_QA010,SUSPENDED_WOODEN_CEILING, 0.0000000, 0.0006118, 0.0029991, 0.0075400, 0.0137900, 0.0211373, 0.0288627, 0.0362100, 0.0424600, 0.0470009, 0.0493882, 0.0512236, 0.0559982, 0.0650799, 0.0775799, 0.0922746, 0.1077254, 0.1224201, 0.1349201, 0.1440018, 0.1487764, 0.1504775, 0.1522049, 0.1550000, 0.1577951, 0.1595225, 0.1600000
HAMT cells, TOPHALL_L2,SINGLE_BRICK_INTERNAL_WALL,   1,   2,   3,   4,   5,   6,   7,   8,   9,  10,  11,  12,  13,  14,  15,  16,  17,  18,  19,  20,  21,  22
HAMT origins,TOPHALL_L2,SINGLE_BRICK_INTERNAL_WALL, 0.0000000, 0.0004775, 0.0022049, 0.0050000, 0.0077951, 0.0095225, 0.0112236, 0.0159982, 0.0250799, 0.0375799, 0.0522746, 0.0677254, 0.0824201, 0.0949201, 0.1040018, 0.1087764, 0.1104775, 0.1122049, 0.1150000, 0.1177951, 0.1195225, 0.1200000
HAMT cells, TOPHALL_DOOR_BEDROOM1,WOODEN_DOOR,   1,   2,   3,   4,   5,   6,   7,   8,   9,  10,  11,  12
HAMT origins,TOPHALL_DOOR_BEDROOM1,WOODEN_DOOR, 0.0000000, 0.0004894, 0.0023993, 0.0060320, 0.0110320, 0.0169098, 0.0230902, 0.0289680, 0.0339680, 0.0376007, 0.0395106, 0.0400000
HAMT cells, TOPHALL_L3,SINGLE_BRICK_INTERNAL_WALL,   1,   2,   3,   4,   5,   6,   7,   8,   9,  10,  11,  12,  13,  14,  15,  16,  17,  18,  19,  20,  21,  22
HAMT origins,TOPHALL_L3,SINGLE_BRICK_INTERNAL_WALL, 0.0000000, 0.0004775, 0.0022049, 0.0050000, 0.0077951, 0.0095225, 0.0112236, 0.0159982, 0.0250799, 0.0375799, 0.0522746, 0.0677254, 0.0824201, 0.0949201, 0.1040018, 0.1087764, 0.1104775, 0.1122049, 0.1150000, 0.1177951, 0.1195225, 0.1200000
HAMT cells, TOPHALL_DOOR_BEDROOM3,WOODEN_DOOR,   1,   2,   3,   4,   5,   6,   7,   8,   9,  10,  11,  12
HAMT origins,TOPHALL_DOOR_BEDROOM3,WOODEN_DOOR, 0.0000000, 0.0004894, 0.0023993, 0.0060320, 0.0110320, 0.0169098, 0.0230902, 0.0289680, 0.0339680, 0.0376007, 0.0395106, 0.0400000
HAMT cells, TOPHALL_L4,SINGLE_BRICK_INTERNAL_WALL,   1,   2,   3,   4,   5,   6,   7,   8,   9,  10,  11,  12,  13,  14,  15,  16,  17,  18,  19,  20,  21,  22
HAMT origins,TOPHALL_L4,SINGLE_BRICK_INTERNAL_WALL, 0.0000000, 0.0004775, 0.0022049, 0.0050000, 0.0077951, 0.0095225, 0.0112236, 0.0159982, 0.0250799, 0.0375799, 0.0522746, 0.0677254, 0.0824201, 0.0949201, 0.1040018, 0.1087764, 0.1104775, 0.1122049, 0.1150000, 0.1177951, 0.1195225, 0.1200000
HAMT cells, TOPHALL+_L1,SINGLE_BRICK_INTERNAL_WALL,   1,   2,   3,   4,   5,   6,   7,   8,   9,  10,  11,  12,  13,  14,  15,  16,  17,  18,  19,  20,  21,  22
HAMT origins,TOPHALL+_L1,SINGLE_BRICK_INTERNAL_WALL, 0.0000000, 0.0004775, 0.0022049, 0.0050000, 0.0077951, 0.0095225, 0.0112236, 0.0159982, 0.0250799, 0.0375799, 0.0522746, 0.0677254, 0.0824201, 0.0949201, 0.1040018, 0.1087764, 0.1104775, 0.1122049, 0.1150000, 0.1177951, 0.1195225, 0.1200000
HAMT cells, TOPHALL_DOOR_BATH1,WOODEN_DOOR,   1,   2,   3,   4,   5,   6,   7,   8,   9,  10,  11,  12
HAMT origins,TOPHALL_DOOR_BATH1,WOODEN_DOOR, 0.0000000, 0.0004894, 0.0023993, 0.0060320, 0.0110320, 0.0169098, 0.0230902, 0.0289680, 0.0339680, 0.0376007, 0.0395106, 0.0400000
HAMT cells, TOPHALL+_L2,SINGLE_BRICK_INTERNAL_WALL,   1,   2,   3,   4,   5,   6,   7,   8,   9,  10,  11,  12,  13,  14,  15,  16,  17,  18,  19,  20,  21,  22
HAMT origins,TOPHALL+_L2,SINGLE_BRICK_INTERNAL_WALL, 0.0000000, 0.0004775, 0.0022049, 0.0050000, 0.0077951, 0.0095225, 0.0112236, 0.0159982, 0.0250799, 0.0375799, 0.0522746, 0.0677254, 0.0824201, 0.0949201, 0.1040018, 0.1087764, 0.1104775, 0.1122049, 0.1150000, 0.1177951, 0.1195225, 0.1200000
HAMT cells, TOPHALL_DOOR_BEDROOM2,WOODEN_DOOR,   1,   2,   3,   4,   5,   6,   7,   8,   9,  10,  11,  12
HAMT origins,TOPHALL_DOOR_BEDROOM2,WOODEN_DOOR, 0.0000000, 0.0004894, 0.0023993, 0.0060320, 0.0110320, 0.0169098, 0.0230902, 0.0289680, 0.0339680, 0.0376007, 0.0395106, 0.0400000
HAMT cells, TOPHALL+_L3,SINGLE_BRICK_INTERNAL_WALL,   1,   2,   3,   4,   5,   6,   7,   8,   9,  10,  11,  12,  13,  14,  15,  16,  17,  18,  19,  20,  21,  22
HAMT origins,TOPHALL+_L3,SINGLE_BRICK_INTERNAL_WALL, 0.0000000, 0.0004775, 0.0022049, 0.0050000, 0.0077951, 0.0095225, 0.0112236, 0.0159982, 0.0250799, 0.0375799, 0.0522746, 0.0677254, 0.0824201, 0.0949201, 0.1040018, 0.1087764, 0.1104775, 0.1122049, 0.1150000, 0.1177951, 0.1195225, 0.1200000
HAMT cells, TOPHALL_DOOR_STAIRCASE,WOODEN_DOOR,   1,   2,   3,   4,   5,   6,   7,   8,   9,  10,  11,  12
HAMT origins,TOPHALL_DOOR_STAIRCASE,WOODEN_DOOR, 0.0000000, 0.0004894, 0.0023993, 0.0060320, 0.0110320, 0.0169098, 0.0230902, 0.0289680, 0.0339680, 0.0376007, 0.0395106, 0.0400000
HAMT cells, TOPHALL+_L4,SOLID_BRICK_RANDOMU,   1,   2,   3,   4,   5,   6,   7,   8,   9,  10,  11,  12,  13,  14,  15,  16,  17,  18,  19,  20,  21,  22,  23
HAMT origins,TOPHALL+_L4,SOLID_BRICK_RANDOMU, 0.0000000, 0.0013459, 0.0065980, 0.0165879, 0.0303379, 0.0465020, 0.0634980, 0.0796621, 0.0934121, 0.1034020, 0.1086541, 0.1105106, 0.1124163, 0.1157171, 0.1195285, 0.1228293, 0.1247350, 0.1257231, 0.1274505, 0.1302456, 0.1330407, 0.1347682, 0.1352456
HAMT cells, TOPHALL+_L4_PU,SOLID_BRICK_RANDOMU,   1,   2,   3,   4,   5,   6,   7,   8,   9,  10,  11,  12,  13,  14,  15,  16,  17,  18,  19,  20,  21,  22,  23
HAMT origins,TOPHALL+_L4_PU,SOLID_BRICK_RANDOMU, 0.0000000, 0.0013459, 0.0065980, 0.0165879, 0.0303379, 0.0465020, 0.0634980, 0.0796621, 0.0934121, 0.1034020, 0.1086541, 0.1105106, 0.1124163, 0.1157171, 0.1195285, 0.1228293, 0.1247350, 0.1257231, 0.1274505, 0.1302456, 0.1330407, 0.1347682, 0.1352456
HAMT cells, TOPHALL+_L4_PD,SOLID_BRICK_RANDOMU,   1,   2,   3,   4,   5,   6,   7,   8,   9,  10,  11,  12,  13,  14,  15,  16,  17,  18,  19,  20,  21,  22,  23
HAMT origins,TOPHALL+_L4_PD,SOLID_BRICK_RANDOMU, 0.0000000, 0.0013459, 0.0065980, 0.0165879, 0.0303379, 0.0465020, 0.0634980, 0.0796621, 0.0934121, 0.1034020, 0.1086541, 0.1105106, 0.1124163, 0.1157171, 0.1195285, 0.1228293, 0.1247350, 0.1257231, 0.1274505, 0.1302456, 0.1330407, 0.1347682, 0.1352456
HAMT cells, TOPHALL_FLOOR,SUSPENDED_WOODEN_FLOOR,   1,   2,   3,   4,   5,   6,   7,   8,   9,  10,  11,  12,  13,  14,  15,  16,  17,  18,  19,  20,  21,  22,  23,  24,  25,  26,  27
HAMT origins,TOPHALL_FLOOR,SUSPENDED_WOODEN_FLOOR, 0.0000000, 0.0004775, 0.0022049, 0.0050000, 0.0077951, 0.0095225, 0.0112236, 0.0159982, 0.0250799, 0.0375799, 0.0522746, 0.0677254, 0.0824201, 0.0949201, 0.1040018, 0.1087764, 0.1106118, 0.1129991, 0.1175400, 0.1237900, 0.1311373, 0.1388627, 0.1462100, 0.1524600, 0.1570009, 0.1593882, 0.1600000
HAMT cells, TOPHALL_FLOOR_QC100,SUSPENDED_WOODEN_FLOOR,   1,   2,   3,   4,   5,   6,   7,   8,   9,  10,  11,  12,  13,  14,  15,  16,  17,  18,  19,  20,  21,  22,  23,  24,  25,  26,  27
HAMT origins,TOPHALL_FLOOR_QC100,SUSPENDED_WOODEN_FLOOR, 0.0000000, 0.0004775, 0.0022049, 0.0050000, 0.0077951, 0.0095225, 0.0112236, 0.0159982, 0.0250799, 0.0375799, 0.0522746, 0.0677254, 0.0824201, 0.0949201, 0.1040018, 0.1087764, 0.1106118, 0.1129991, 0.1175400, 0.1237900, 0.1311373, 0.1388627, 0.1462100, 0.1524600, 0.1570009, 0.1593882, 0.1600000
HAMT cells, TOPHALL_FLOOR_QC100_QA100,SUSPENDED_WOODEN_FLOOR,   1,   2,   3,   4,   5,   6,   7,   8,   9,  10,  11,  12,  13,  14,  15,  16,  17,  18,  19,  20,  21,  22,  23,  24,  25,  26,  27
HAMT origins,TOPHALL_FLOOR_QC100_QA100,SUSPENDED_WOODEN_FLOOR, 0.0000000, 0.0004775, 0.0022049, 0.0050000, 0.0077951, 0.0095225, 0.0112236, 0.0159982, 0.0250799, 0.0375799, 0.0522746, 0.0677254, 0.0824201, 0.0949201, 0.1040018, 0.1087764, 0.1106118, 0.1129991, 0.1175400, 0.1237900, 0.1311373, 0.1388627, 0.1462100, 0.1524600, 0.1570009, 0.1593882, 0.1600000
HAMT cells, TOPHALL+_FLOOR,SUSPENDED_WOODEN_FLOOR,   1,   2,   3,   4,   5,   6,   7,   8,   9,  10,  11,  12,  13,  14,  15,  16,  17,  18,  19,  20,  21,  22,  23,  24,  25,  26,  27
HAMT origins,TOPHALL+_FLOOR,SUSPENDED_WOODEN_FLOOR, 0.0000000, 0.0004775, 0.0022049, 0.0050000, 0.0077951, 0.0095225, 0.0112236, 0.0159982, 0.0250799, 0.0375799, 0.0522746, 0.0677254, 0.0824201, 0.0949201, 0.1040018, 0.1087764, 0.1106118, 0.1129991, 0.1175400, 0.1237900, 0.1311373, 0.1388627, 0.1462100, 0.1524600, 0.1570009, 0.1593882, 0.1600000
HAMT cells, TOPHALL_CEILING,LOFTCEILING_RANDOMU,   1,   2,   3,   4,   5,   6,   7,   8,   9,  10,  11,  12,  13,  14,  15,  16,  17,  18,  19,  20,  21,  22,  23,  24,  25,  26,  27
HAMT origins,TOPHALL_CEILING,LOFTCEILING_RANDOMU, 0.0000000, 0.0004775, 0.0022049, 0.0050000, 0.0077951, 0.0095225, 0.0129079, 0.0242550, 0.0458383, 0.0755453, 0.1104679, 0.1471877, 0.1821103, 0.2118173, 0.2334007, 0.2447477, 0.2482524, 0.2504118, 0.2539056, 0.2573995, 0.2595588, 0.2606331, 0.2623605, 0.2651556, 0.2679507, 0.2696782, 0.2701556
HAMT cells, TOPHALL+_CEILING,LOFTCEILING_RANDOMU,   1,   2,   3,   4,   5,   6,   7,   8,   9,  10,  11,  12,  13,  14,  15,  16,  17,  18,  19,  20,  21,  22,  23,  24,  25,  26,  27
HAMT origins,TOPHALL+_CEILING,LOFTCEILING_RANDOMU, 0.0000000, 0.0004775, 0.0022049, 0.0050000, 0.0077951, 0.0095225, 0.0129079, 0.0242550, 0.0458383, 0.0755453, 0.1104679, 0.1471877, 0.1821103, 0.2118173, 0.2334007, 0.2447477, 0.2482524, 0.2504118, 0.2539056, 0.2573995, 0.2595588, 0.2606331, 0.2623605, 0.2651556, 0.2679507, 0.2696782, 0.2701556
HAMT cells, TOPHALL+_CEILING_QA010,LOFTCEILING_RANDOMU,   1,   2,   3,   4,   5,   6,   7,   8,   9,  10,  11,  12,  13,  14,  15,  16,  17,  18,  19,  20,  21,  22,  23,  24,  25,  26,  27
HAMT origins,TOPHALL+_CEILING_QA010,LOFTCEILING_RANDOMU, 0.0000000, 0.0004775, 0.0022049, 0.0050000, 0.0077951, 0.0095225, 0.0129079, 0.0242550, 0.0458383, 0.0755453, 0.1104679, 0.1471877, 0.1821103, 0.2118173, 0.2334007, 0.2447477, 0.2482524, 0.2504118, 0.2539056, 0.2573995, 0.2595588, 0.2606331, 0.2623605, 0.2651556, 0.2679507, 0.2696782, 0.2701556
HAMT cells, BEDROOM2_L1,SOLID_BRICK_RANDOMU,   1,   2,   3,   4,   5,   6,   7,   8,   9,  10,  11,  12,  13,  14,  15,  16,  17,  18,  19,  20,  21,  22,  23
HAMT origins,BEDROOM2_L1,SOLID_BRICK_RANDOMU, 0.0000000, 0.0013459, 0.0065980, 0.0165879, 0.0303379, 0.0465020, 0.0634980, 0.0796621, 0.0934121, 0.1034020, 0.1086541, 0.1105106, 0.1124163, 0.1157171, 0.1195285, 0.1228293, 0.1247350, 0.1257231, 0.1274505, 0.1302456, 0.1330407, 0.1347682, 0.1352456
HAMT cells, BEDROOM2_L2,SOLID_BRICK_RANDOMU,   1,   2,   3,   4,   5,   6,   7,   8,   9,  10,  11,  12,  13,  14,  15,  16,  17,  18,  19,  20,  21,  22,  23
HAMT origins,BEDROOM2_L2,SOLID_BRICK_RANDOMU, 0.0000000, 0.0013459, 0.0065980, 0.0165879, 0.0303379, 0.0465020, 0.0634980, 0.0796621, 0.0934121, 0.1034020, 0.1086541, 0.1105106, 0.1124163, 0.1157171, 0.1195285, 0.1228293, 0.1247350, 0.1257231, 0.1274505, 0.1302456, 0.1330407, 0.1347682, 0.1352456
HAMT cells, BEDROOM2_L3,SINGLE_BRICK_INTERNAL_WALL,   1,   2,   3,   4,   5,   6,   7,   8,   9,  10,  11,  12,  13,  14,  15,  16,  17,  18,  19,  20,  21,  22
HAMT origins,BEDROOM2_L3,SINGLE_BRICK_INTERNAL_WALL, 0.0000000, 0.0004775, 0.0022049, 0.0050000, 0.0077951, 0.0095225, 0.0112236, 0.0159982, 0.0250799, 0.0375799, 0.0522746, 0.0677254, 0.0824201, 0.0949201, 0.1040018, 0.1087764, 0.1104775, 0.1122049, 0.1150000, 0.1177951, 0.1195225, 0.1200000
HAMT cells, BEDROOM2_L4,SINGLE_BRICK_INTERNAL_WALL,   1,   2,   3,   4,   5,   6,   7,   8,   9,  10,  11,  12,  13,  14,  15,  16,  17,  18,  19,  20,  21,  22
HAMT origins,BEDROOM2_L4,SINGLE_BRICK_INTERNAL_WALL, 0.0000000, 0.0004775, 0.0022049, 0.0050000, 0.0077951, 0.0095225, 0.0112236, 0.0159982, 0.0250799, 0.0375799, 0.0522746, 0.0677254, 0.0824201, 0.0949201, 0.1040018, 0.1087764, 0.1104775, 0.1122049, 0.1150000, 0.1177951, 0.1195225, 0.1200000
HAMT cells, BEDROOM2_L4_QA001,SINGLE_BRICK_INTERNAL_WALL,   1,   2,   3,   4,   5,   6,   7,   8,   9,  10,  11,  12,  13,  14,  15,  16,  17,  18,  19,  20,  21,  22
HAMT origins,BEDROOM2_L4_QA001,SINGLE_BRICK_INTERNAL_WALL, 0.0000000, 0.0004775, 0.0022049, 0.0050000, 0.0077951, 0.0095225, 0.0112236, 0.0159982, 0.0250799, 0.0375799, 0.0522746, 0.0677254, 0.0824201, 0.0949201, 0.1040018, 0.1087764, 0.1104775, 0.1122049, 0.1150000, 0.1177951, 0.1195225, 0.1200000
HAMT cells, BEDROOM2_DOOR_TOPHALL,WOODEN_DOOR,   1,   2,   3,   4,   5,   6,   7,   8,   9,  10,  11,  12
HAMT origins,BEDROOM2_DOOR_TOPHALL,WOODEN_DOOR, 0.0000000, 0.0004894, 0.0023993, 0.0060320, 0.0110320, 0.0169098, 0.0230902, 0.0289680, 0.0339680, 0.0376007, 0.0395106, 0.0400000
HAMT cells, BEDROOM2_L1_PU,SOLID_BRICK_RANDOMU,   1,   2,   3,   4,   5,   6,   7,   8,   9,  10,  11,  12,  13,  14,  15,  16,  17,  18,  19,  20,  21,  22,  23
HAMT origins,BEDROOM2_L1_PU,SOLID_BRICK_RANDOMU, 0.0000000, 0.0013459, 0.0065980, 0.0165879, 0.0303379, 0.0465020, 0.0634980, 0.0796621, 0.0934121, 0.1034020, 0.1086541, 0.1105106, 0.1124163, 0.1157171, 0.1195285, 0.1228293, 0.1247350, 0.1257231, 0.1274505, 0.1302456, 0.1330407, 0.1347682, 0.1352456
HAMT cells, BEDROOM2_L1_PD,SOLID_BRICK_RANDOMU,   1,   2,   3,   4,   5,   6,   7,   8,   9,  10,  11,  12,  13,  14,  15,  16,  17,  18,  19,  20,  21,  22,  23
HAMT origins,BEDROOM2_L1_PD,SOLID_BRICK_RANDOMU, 0.0000000, 0.0013459, 0.0065980, 0.0165879, 0.0303379, 0.0465020, 0.0634980, 0.0796621, 0.0934121, 0.1034020, 0.1086541, 0.1105106, 0.1124163, 0.1157171, 0.1195285, 0.1228293, 0.1247350, 0.1257231, 0.1274505, 0.1302456, 0.1330407, 0.1347682, 0.1352456
HAMT cells, BEDROOM2_FLOOR,SUSPENDED_WOODEN_FLOOR,   1,   2,   3,   4,   5,   6,   7,   8,   9,  10,  11,  12,  13,  14,  15,  16,  17,  18,  19,  20,  21,  22,  23,  24,  25,  26,  27
HAMT origins,BEDROOM2_FLOOR,SUSPENDED_WOODEN_FLOOR, 0.0000000, 0.0004775, 0.0022049, 0.0050000, 0.0077951, 0.0095225, 0.0112236, 0.0159982, 0.0250799, 0.0375799, 0.0522746, 0.0677254, 0.0824201, 0.0949201, 0.1040018, 0.1087764, 0.1106118, 0.1129991, 0.1175400, 0.1237900, 0.1311373, 0.1388627, 0.1462100, 0.1524600, 0.1570009, 0.1593882, 0.1600000
HAMT cells, BEDROOM2_FLOOR_QA010,SUSPENDED_WOODEN_FLOOR,   1,   2,   3,   4,   5,   6,   7,   8,   9,  10,  11,  12,  13,  14,  15,  16,  17,  18,  19,  20,  21,  22,  23,  24,  25,  26,  27
HAMT origins,BEDROOM2_FLOOR_QA010,SUSPENDED_WOODEN_FLOOR, 0.0000000, 0.0004775, 0.0022049, 0.0050000, 0.0077951, 0.0095225, 0.0112236, 0.0159982, 0.0250799, 0.0375799, 0.0522746, 0.0677254, 0.0824201, 0.0949201, 0.1040018, 0.1087764, 0.1106118, 0.1129991, 0.1175400, 0.1237900, 0.1311373, 0.1388627, 0.1462100, 0.1524600, 0.1570009, 0.1593882, 0.1600000
HAMT cells, BEDROOM2_FLOOR_QA010_QC010,SUSPENDED_WOODEN_FLOOR,   1,   2,   3,   4,   5,   6,   7,   8,   9,  10,  11,  12,  13,  14,  15,  16,  17,  18,  19,  20,  21,  22,  23,  24,  25,  26,  27
HAMT origins,BEDROOM2_FLOOR_QA010_QC010,SUSPENDED_WOODEN_FLOOR, 0.0000000, 0.0004775, 0.0022049, 0.0050000, 0.0077951, 0.0095225, 0.0112236, 0.0159982, 0.0250799, 0.0375799, 0.0522746, 0.0677254, 0.0824201, 0.0949201, 0.1040018, 0.1087764, 0.1106118, 0.1129991, 0.1175400, 0.1237900, 0.1311373, 0.1388627, 0.1462100, 0.1524600, 0.1570009, 0.1593882, 0.1600000
HAMT cells, BEDROOM2_CEILING,LOFTCEILING_RANDOMU,   1,   2,   3,   4,   5,   6,   7,   8,   9,  10,  11,  12,  13,  14,  15,  16,  17,  18,  19,  20,  21,  22,  23,  24,  25,  26,  27
HAMT origins,BEDROOM2_CEILING,LOFTCEILING_RANDOMU, 0.0000000, 0.0004775, 0.0022049, 0.0050000, 0.0077951, 0.0095225, 0.0129079, 0.0242550, 0.0458383, 0.0755453, 0.1104679, 0.1471877, 0.1821103, 0.2118173, 0.2334007, 0.2447477, 0.2482524, 0.2504118, 0.2539056, 0.2573995, 0.2595588, 0.2606331, 0.2623605, 0.2651556, 0.2679507, 0.2696782, 0.2701556
HAMT cells, BEDROOM2_CEILING_QC010,LOFTCEILING_RANDOMU,   1,   2,   3,   4,   5,   6,   7,   8,   9,  10,  11,  12,  13,  14,  15,  16,  17,  18,  19,  20,  21,  22,  23,  24,  25,  26,  27
HAMT origins,BEDROOM2_CEILING_QC010,LOFTCEILING_RANDOMU, 0.0000000, 0.0004775, 0.0022049, 0.0050000, 0.0077951, 0.0095225, 0.0129079, 0.0242550, 0.0458383, 0.0755453, 0.1104679, 0.1471877, 0.1821103, 0.2118173, 0.2334007, 0.2447477, 0.2482524, 0.2504118, 0.2539056, 0.2573995, 0.2595588, 0.2606331, 0.2623605, 0.2651556, 0.2679507, 0.2696782, 0.2701556
HAMT cells, BATH1_L1,SOLID_BRICK_RANDOMU,   1,   2,   3,   4,   5,   6,   7,   8,   9,  10,  11,  12,  13,  14,  15,  16,  17,  18,  19,  20,  21,  22,  23
HAMT origins,BATH1_L1,SOLID_BRICK_RANDOMU, 0.0000000, 0.0013459, 0.0065980, 0.0165879, 0.0303379, 0.0465020, 0.0634980, 0.0796621, 0.0934121, 0.1034020, 0.1086541, 0.1105106, 0.1124163, 0.1157171, 0.1195285, 0.1228293, 0.1247350, 0.1257231, 0.1274505, 0.1302456, 0.1330407, 0.1347682, 0.1352456
HAMT cells, BATH1_L2,SINGLE_BRICK_INTERNAL_WALL,   1,   2,   3,   4,   5,   6,   7,   8,   9,  10,  11,  12,  13,  14,  15,  16,  17,  18,  19,  20,  21,  22
HAMT origins,BATH1_L2,SINGLE_BRICK_INTERNAL_WALL, 0.0000000, 0.0004775, 0.0022049, 0.0050000, 0.0077951, 0.0095225, 0.0112236, 0.0159982, 0.0250799, 0.0375799, 0.0522746, 0.0677254, 0.0824201, 0.0949201, 0.1040018, 0.1087764, 0.1104775, 0.1122049, 0.1150000, 0.1177951, 0.1195225, 0.1200000
HAMT cells, BATH1_L3,SINGLE_BRICK_INTERNAL_WALL,   1,   2,   3,   4,   5,   6,   7,   8,   9,  10,  11,  12,  13,  14,  15,  16,  17,  18,  19,  20,  21,  22
HAMT origins,BATH1_L3,SINGLE_BRICK_INTERNAL_WALL, 0.0000000, 0.0004775, 0.0022049, 0.0050000, 0.0077951, 0.0095225, 0.0112236, 0.0159982, 0.0250799, 0.0375799, 0.0522746, 0.0677254, 0.0824201, 0.0949201, 0.1040018, 0.1087764, 0.1104775, 0.1122049, 0.1150000, 0.1177951, 0.1195225, 0.1200000
HAMT cells, BATH1_DOOR_TOPHALL,WOODEN_DOOR,   1,   2,   3,   4,   5,   6,   7,   8,   9,  10,  11,  12
HAMT origins,BATH1_DOOR_TOPHALL,WOODEN_DOOR, 0.0000000, 0.0004894, 0.0023993, 0.0060320, 0.0110320, 0.0169098, 0.0230902, 0.0289680, 0.0339680, 0.0376007, 0.0395106, 0.0400000
HAMT cells, BATH1_L4,SOLID_BRICK_RANDOMU,   1,   2,   3,   4,   5,   6,   7,   8,   9,  10,  11,  12,  13,  14,  15,  16,  17,  18,  19,  20,  21,  22,  23
HAMT origins,BATH1_L4,SOLID_BRICK_RANDOMU, 0.0000000, 0.0013459, 0.0065980, 0.0165879, 0.0303379, 0.0465020, 0.0634980, 0.0796621, 0.0934121, 0.1034020, 0.1086541, 0.1105106, 0.1124163, 0.1157171, 0.1195285, 0.1228293, 0.1247350, 0.1257231, 0.1274505, 0.1302456, 0.1330407, 0.1347682, 0.1352456
HAMT cells, BATH1_L1_PU,SOLID_BRICK_RANDOMU,   1,   2,   3,   4,   5,   6,   7,   8,   9,  10,  11,  12,  13,  14,  15,  16,  17,  18,  19,  20,  21,  22,  23
HAMT origins,BATH1_L1_PU,SOLID_BRICK_RANDOMU, 0.0000000, 0.0013459, 0.0065980, 0.0165879, 0.0303379, 0.0465020, 0.0634980, 0.0796621, 0.0934121, 0.1034020, 0.1086541, 0.1105106, 0.1124163, 0.1157171, 0.1195285, 0.1228293, 0.1247350, 0.1257231, 0.1274505, 0.1302456, 0.1330407, 0.1347682, 0.1352456
HAMT cells, BATH1_L1_PD,SOLID_BRICK_RANDOMU,   1,   2,   3,   4,   5,   6,   7,   8,   9,  10,  11,  12,  13,  14,  15,  16,  17,  18,  19,  20,  21,  22,  23
HAMT origins,BATH1_L1_PD,SOLID_BRICK_RANDOMU, 0.0000000, 0.0013459, 0.0065980, 0.0165879, 0.0303379, 0.0465020, 0.0634980, 0.0796621, 0.0934121, 0.1034020, 0.1086541, 0.1105106, 0.1124163, 0.1157171, 0.1195285, 0.1228293, 0.1247350, 0.1257231, 0.1274505, 0.1302456, 0.1330407, 0.1347682, 0.1352456
HAMT cells, BATH1_L4_PU,SOLID_BRICK_RANDOMU,   1,   2,   3,   4,   5,   6,   7,   8,   9,  10,  11,  12,  13,  14,  15,  16,  17,  18,  19,  20,  21,  22,  23
HAMT origins,BATH1_L4_PU,SOLID_BRICK_RANDOMU, 0.0000000, 0.0013459, 0.0065980, 0.0165879, 0.0303379, 0.0465020, 0.0634980, 0.0796621, 0.0934121, 0.1034020, 0.1086541, 0.1105106, 0.1124163, 0.1157171, 0.1195285, 0.1228293, 0.1247350, 0.1257231, 0.1274505, 0.1302456, 0.1330407, 0.1347682, 0.1352456
HAMT cells, BATH1_L4_PD,SOLID_BRICK_RANDOMU,   1,   2,   3,   4,   5,   6,   7,   8,   9,  10,  11,  12,  13,  14,  15,  16,  17,  18,  19,  20,  21,  22,  23
HAMT origins,BATH1_L4_PD,SOLID_BRICK_RANDOMU, 0.0000000, 0.0013459, 0.0065980, 0.0165879, 0.0303379, 0.0465020, 0.0634980, 0.0796621, 0.0934121, 0.1034020, 0.1086541, 0.1105106, 0.1124163, 0.1157171, 0.1195285, 0.1228293, 0.1247350, 0.1257231, 0.1274505, 0.1302456, 0.1330407, 0.1347682, 0.1352456
HAMT cells, BATH1_FLOOR,SUSPENDED_WOODEN_FLOOR,   1,   2,   3,   4,   5,   6,   7,   8,   9,  10,  11,  12,  13,  14,  15,  16,  17,  18,  19,  20,  21,  22,  23,  24,  25,  26,  27
HAMT origins,BATH1_FLOOR,SUSPENDED_WOODEN_FLOOR, 0.0000000, 0.0004775, 0.0022049, 0.0050000, 0.0077951, 0.0095225, 0.0112236, 0.0159982, 0.0250799, 0.0375799, 0.0522746, 0.0677254, 0.0824201, 0.0949201, 0.1040018, 0.1087764, 0.1106118, 0.1129991, 0.1175400, 0.1237900, 0.1311373, 0.1388627, 0.1462100, 0.1524600, 0.1570009, 0.1593882, 0.1600000
HAMT cells, BATH1_CEILING,LOFTCEILING_RANDOMU,   1,   2,   3,   4,   5,   6,   7,   8,   9,  10,  11,  12,  13,  14,  15,  16,  17,  18,  19,  20,  21,  22,  23,  24,  25,  26,  27
HAMT origins,BATH1_CEILING,LOFTCEILING_RANDOMU, 0.0000000, 0.0004775, 0.0022049, 0.0050000, 0.0077951, 0.0095225, 0.0129079, 0.0242550, 0.0458383, 0.0755453, 0.1104679, 0.1471877, 0.1821103, 0.2118173, 0.2334007, 0.2447477, 0.2482524, 0.2504118, 0.2539056, 0.2573995, 0.2595588, 0.2606331, 0.2623605, 0.2651556, 0.2679507, 0.2696782, 0.2701556
HAMT cells, BEDROOM1_L1,SINGLE_BRICK_INTERNAL_WALL,   1,   2,   3,   4,   5,   6,   7,   8,   9,  10,  11,  12,  13,  14,  15,  16,  17,  18,  19,  20,  21,  22
HAMT origins,BEDROOM1_L1,SINGLE_BRICK_INTERNAL_WALL, 0.0000000, 0.0004775, 0.0022049, 0.0050000, 0.0077951, 0.0095225, 0.0112236, 0.0159982, 0.0250799, 0.0375799, 0.0522746, 0.0677254, 0.0824201, 0.0949201, 0.1040018, 0.1087764, 0.1104775, 0.1122049, 0.1150000, 0.1177951, 0.1195225, 0.1200000
HAMT cells, BEDROOM1_L2,SOLID_BRICK_RANDOMU,   1,   2,   3,   4,   5,   6,   7,   8,   9,  10,  11,  12,  13,  14,  15,  16,  17,  18,  19,  20,  21,  22,  23
HAMT origins,BEDROOM1_L2,SOLID_BRICK_RANDOMU, 0.0000000, 0.0013459, 0.0065980, 0.0165879, 0.0303379, 0.0465020, 0.0634980, 0.0796621, 0.0934121, 0.1034020, 0.1086541, 0.1105106, 0.1124163, 0.1157171, 0.1195285, 0.1228293, 0.1247350, 0.1257231, 0.1274505, 0.1302456, 0.1330407, 0.1347682, 0.1352456
HAMT cells, BEDROOM1_L3,SOLID_BRICK_RANDOMU,   1,   2,   3,   4,   5,   6,   7,   8,   9,  10,  11,  12,  13,  14,  15,  16,  17,  18,  19,  20,  21,  22,  23
HAMT origins,BEDROOM1_L3,SOLID_BRICK_RANDOMU, 0.0000000, 0.0013459, 0.0065980, 0.0165879, 0.0303379, 0.0465020, 0.0634980, 0.0796621, 0.0934121, 0.1034020, 0.1086541, 0.1105106, 0.1124163, 0.1157171, 0.1195285, 0.1228293, 0.1247350, 0.1257231, 0.1274505, 0.1302456, 0.1330407, 0.1347682, 0.1352456
HAMT cells, BEDROOM1_L4,SINGLE_BRICK_INTERNAL_WALL,   1,   2,   3,   4,   5,   6,   7,   8,   9,  10,  11,  12,  13,  14,  15,  16,  17,  18,  19,  20,  21,  22
HAMT origins,BEDROOM1_L4,SINGLE_BRICK_INTERNAL_WALL, 0.0000000, 0.0004775, 0.0022049, 0.0050000, 0.0077951, 0.0095225, 0.0112236, 0.0159982, 0.0250799, 0.0375799, 0.0522746, 0.0677254, 0.0824201, 0.0949201, 0.1040018, 0.1087764, 0.1104775, 0.1122049, 0.1150000, 0.1177951, 0.1195225, 0.1200000
HAMT cells, BEDROOM1_L4_QC010,SINGLE_BRICK_INTERNAL_WALL,   1,   2,   3,   4,   5,   6,   7,   8,   9,  10,  11,  12,  13,  14,  15,  16,  17,  18,  19,  20,  21,  22
HAMT origins,BEDROOM1_L4_QC010,SINGLE_BRICK_INTERNAL_WALL, 0.0000000, 0.0004775, 0.0022049, 0.0050000, 0.0077951, 0.0095225, 0.0112236, 0.0159982, 0.0250799, 0.0375799, 0.0522746, 0.0677254, 0.0824201, 0.0949201, 0.1040018, 0.1087764, 0.1104775, 0.1122049, 0.1150000, 0.1177951, 0.1195225, 0.1200000
HAMT cells, BEDROOM1_DOOR_TOPHALL,WOODEN_DOOR,   1,   2,   3,   4,   5,   6,   7,   8,   9,  10,  11,  12
HAMT origins,BEDROOM1_DOOR_TOPHALL,WOODEN_DOOR, 0.0000000, 0.0004894, 0.0023993, 0.0060320, 0.0110320, 0.0169098, 0.0230902, 0.0289680, 0.0339680, 0.0376007, 0.0395106, 0.0400000
HAMT cells, BEDROOM1_L3_PU,SOLID_BRICK_RANDOMU,   1,   2,   3,   4,   5,   6,   7,   8,   9,  10,  11,  12,  13,  14,  15,  16,  17,  18,  19,  20,  21,  22,  23
HAMT origins,BEDROOM1_L3_PU,SOLID_BRICK_RANDOMU, 0.0000000, 0.0013459, 0.0065980, 0.0165879, 0.0303379, 0.0465020, 0.0634980, 0.0796621, 0.0934121, 0.1034020, 0.1086541, 0.1105106, 0.1124163, 0.1157171, 0.1195285, 0.1228293, 0.1247350, 0.1257231, 0.1274505, 0.1302456, 0.1330407, 0.1347682, 0.1352456
HAMT cells, BEDROOM1_L3_PD,SOLID_BRICK_RANDOMU,   1,   2,   3,   4,   5,   6,   7,   8,   9,  10,  11,  12,  13,  14,  15,  16,  17,  18,  19,  20,  21,  22,  23
HAMT origins,BEDROOM1_L3_PD,SOLID_BRICK_RANDOMU, 0.0000000, 0.0013459, 0.0065980, 0.0165879, 0.0303379, 0.0465020, 0.0634980, 0.0796621, 0.0934121, 0.1034020, 0.1086541, 0.1105106, 0.1124163, 0.1157171, 0.1195285, 0.1228293, 0.1247350, 0.1257231, 0.1274505, 0.1302456, 0.1330407, 0.1347682, 0.1352456
HAMT cells, BEDROOM1_FLOOR,SUSPENDED_WOODEN_FLOOR,   1,   2,   3,   4,   5,   6,   7,   8,   9,  10,  11,  12,  13,  14,  15,  16,  17,  18,  19,  20,  21,  22,  23,  24,  25,  26,  27
HAMT origins,BEDROOM1_FLOOR,SUSPENDED_WOODEN_FLOOR, 0.0000000, 0.0004775, 0.0022049, 0.0050000, 0.0077951, 0.0095225, 0.0112236, 0.0159982, 0.0250799, 0.0375799, 0.0522746, 0.0677254, 0.0824201, 0.0949201, 0.1040018, 0.1087764, 0.1106118, 0.1129991, 0.1175400, 0.1237900, 0.1311373, 0.1388627, 0.1462100, 0.1524600, 0.1570009, 0.1593882, 0.1600000
HAMT cells, BEDROOM1_FLOOR_Q1,SUSPENDED_WOODEN_FLOOR,   1,   2,   3,   4,   5,   6,   7,   8,   9,  10,  11,  12,  13,  14,  15,  16,  17,  18,  19,  20,  21,  22,  23,  24,  25,  26,  27
HAMT origins,BEDROOM1_FLOOR_Q1,SUSPENDED_WOODEN_FLOOR, 0.0000000, 0.0004775, 0.0022049, 0.0050000, 0.0077951, 0.0095225, 0.0112236, 0.0159982, 0.0250799, 0.0375799, 0.0522746, 0.0677254, 0.0824201, 0.0949201, 0.1040018, 0.1087764, 0.1106118, 0.1129991, 0.1175400, 0.1237900, 0.1311373, 0.1388627, 0.1462100, 0.1524600, 0.1570009, 0.1593882, 0.1600000
HAMT cells, BEDROOM1_FLOOR_QA010,SUSPENDED_WOODEN_FLOOR,   1,   2,   3,   4,   5,   6,   7,   8,   9,  10,  11,  12,  13,  14,  15,  16,  17,  18,  19,  20,  21,  22,  23,  24,  25,  26,  27
HAMT origins,BEDROOM1_FLOOR_QA010,SUSPENDED_WOODEN_FLOOR, 0.0000000, 0.0004775, 0.0022049, 0.0050000, 0.0077951, 0.0095225, 0.0112236, 0.0159982, 0.0250799, 0.0375799, 0.0522746, 0.0677254, 0.0824201, 0.0949201, 0.1040018, 0.1087764, 0.1106118, 0.1129991, 0.1175400, 0.1237900, 0.1311373, 0.1388627, 0.1462100, 0.1524600, 0.1570009, 0.1593882, 0.1600000
HAMT cells, BEDROOM1_FLOOR_QA100,SUSPENDED_WOODEN_FLOOR,   1,   2,   3,   4,   5,   6,   7,   8,   9,  10,  11,  12,  13,  14,  15,  16,  17,  18,  19,  20,  21,  22,  23,  24,  25,  26,  27
HAMT origins,BEDROOM1_FLOOR_QA100,SUSPENDED_WOODEN_FLOOR, 0.0000000, 0.0004775, 0.0022049, 0.0050000, 0.0077951, 0.0095225, 0.0112236, 0.0159982, 0.0250799, 0.0375799, 0.0522746, 0.0677254, 0.0824201, 0.0949201, 0.1040018, 0.1087764, 0.1106118, 0.1129991, 0.1175400, 0.1237900, 0.1311373, 0.1388627, 0.1462100, 0.1524600, 0.1570009, 0.1593882, 0.1600000
HAMT cells, BEDROOM1_FLOOR_Q1_QC010,SUSPENDED_WOODEN_FLOOR,   1,   2,   3,   4,   5,   6,   7,   8,   9,  10,  11,  12,  13,  14,  15,  16,  17,  18,  19,  20,  21,  22,  23,  24,  25,  26,  27
HAMT origins,BEDROOM1_FLOOR_Q1_QC010,SUSPENDED_WOODEN_FLOOR, 0.0000000, 0.0004775, 0.0022049, 0.0050000, 0.0077951, 0.0095225, 0.0112236, 0.0159982, 0.0250799, 0.0375799, 0.0522746, 0.0677254, 0.0824201, 0.0949201, 0.1040018, 0.1087764, 0.1106118, 0.1129991, 0.1175400, 0.1237900, 0.1311373, 0.1388627, 0.1462100, 0.1524600, 0.1570009, 0.1593882, 0.1600000
HAMT cells, BEDROOM1_FLOOR_QA100_QC010,SUSPENDED_WOODEN_FLOOR,   1,   2,   3,   4,   5,   6,   7,   8,   9,  10,  11,  12,  13,  14,  15,  16,  17,  18,  19,  20,  21,  22,  23,  24,  25,  26,  27
HAMT origins,BEDROOM1_FLOOR_QA100_QC010,SUSPENDED_WOODEN_FLOOR, 0.0000000, 0.0004775, 0.0022049, 0.0050000, 0.0077951, 0.0095225, 0.0112236, 0.0159982, 0.0250799, 0.0375799, 0.0522746, 0.0677254, 0.0824201, 0.0949201, 0.1040018, 0.1087764, 0.1106118, 0.1129991, 0.1175400, 0.1237900, 0.1311373, 0.1388627, 0.1462100, 0.1524600, 0.1570009, 0.1593882, 0.1600000
HAMT cells, BEDROOM1_CEILING,LOFTCEILING_RANDOMU,   1,   2,   3,   4,   5,   6,   7,   8,   9,  10,  11,  12,  13,  14,  15,  16,  17,  18,  19,  20,  21,  22,  23,  24,  25,  26,  27
HAMT origins,BEDROOM1_CEILING,LOFTCEILING_RANDOMU, 0.0000000, 0.0004775, 0.0022049, 0.0050000, 0.0077951, 0.0095225, 0.0129079, 0.0242550, 0.0458383, 0.0755453, 0.1104679, 0.1471877, 0.1821103, 0.2118173, 0.2334007, 0.2447477, 0.2482524, 0.2504118, 0.2539056, 0.2573995, 0.2595588, 0.2606331, 0.2623605, 0.2651556, 0.2679507, 0.2696782, 0.2701556
HAMT cells, KITCHEN_L1,SOLID_BRICK_RANDOMU,   1,   2,   3,   4,   5,   6,   7,   8,   9,  10,  11,  12,  13,  14,  15,  16,  17,  18,  19,  20,  21,  22,  23
HAMT origins,KITCHEN_L1,SOLID_BRICK_RANDOMU, 0.0000000, 0.0013459, 0.0065980, 0.0165879, 0.0303379, 0.0465020, 0.0634980, 0.0796621, 0.0934121, 0.1034020, 0.1086541, 0.1105106, 0.1124163, 0.1157171, 0.1195285, 0.1228293, 0.1247350, 0.1257231, 0.1274505, 0.1302456, 0.1330407, 0.1347682, 0.1352456
HAMT cells, KITCHEN_L2,SINGLE_BRICK_INTERNAL_WALL,   1,   2,   3,   4,   5,   6,   7,   8,   9,  10,  11,  12,  13,  14,  15,  16,  17,  18,  19,  20,  21,  22
HAMT origins,KITCHEN_L2,SINGLE_BRICK_INTERNAL_WALL, 0.0000000, 0.0004775, 0.0022049, 0.0050000, 0.0077951, 0.0095225, 0.0112236, 0.0159982, 0.0250799, 0.0375799, 0.0522746, 0.0677254, 0.0824201, 0.0949201, 0.1040018, 0.1087764, 0.1104775, 0.1122049, 0.1150000, 0.1177951, 0.1195225, 0.1200000
HAMT cells, KITCHEN_L3,SINGLE_BRICK_INTERNAL_WALL,   1,   2,   3,   4,   5,   6,   7,   8,   9,  10,  11,  12,  13,  14,  15,  16,  17,  18,  19,  20,  21,  22
HAMT origins,KITCHEN_L3,SINGLE_BRICK_INTERNAL_WALL, 0.0000000, 0.0004775, 0.0022049, 0.0050000, 0.0077951, 0.0095225, 0.0112236, 0.0159982, 0.0250799, 0.0375799, 0.0522746, 0.0677254, 0.0824201, 0.0949201, 0.1040018, 0.1087764, 0.1104775, 0.1122049, 0.1150000, 0.1177951, 0.1195225, 0.1200000
HAMT cells, KITCHEN_DOOR_HALL,WOODEN_DOOR,   1,   2,   3,   4,   5,   6,   7,   8,   9,  10,  11,  12
HAMT origins,KITCHEN_DOOR_HALL,WOODEN_DOOR, 0.0000000, 0.0004894, 0.0023993, 0.0060320, 0.0110320, 0.0169098, 0.0230902, 0.0289680, 0.0339680, 0.0376007, 0.0395106, 0.0400000
HAMT cells, KITCHEN_L4,SOLID_BRICK_RANDOMU,   1,   2,   3,   4,   5,   6,   7,   8,   9,  10,  11,  12,  13,  14,  15,  16,  17,  18,  19,  20,  21,  22,  23
HAMT origins,KITCHEN_L4,SOLID_BRICK_RANDOMU, 0.0000000, 0.0013459, 0.0065980, 0.0165879, 0.0303379, 0.0465020, 0.0634980, 0.0796621, 0.0934121, 0.1034020, 0.1086541, 0.1105106, 0.1124163, 0.1157171, 0.1195285, 0.1228293, 0.1247350, 0.1257231, 0.1274505, 0.1302456, 0.1330407, 0.1347682, 0.1352456
HAMT cells, KITCHEN_L3_QA001,SINGLE_BRICK_INTERNAL_WALL,   1,   2,   3,   4,   5,   6,   7,   8,   9,  10,  11,  12,  13,  14,  15,  16,  17,  18,  19,  20,  21,  22
HAMT origins,KITCHEN_L3_QA001,SINGLE_BRICK_INTERNAL_WALL, 0.0000000, 0.0004775, 0.0022049, 0.0050000, 0.0077951, 0.0095225, 0.0112236, 0.0159982, 0.0250799, 0.0375799, 0.0522746, 0.0677254, 0.0824201, 0.0949201, 0.1040018, 0.1087764, 0.1104775, 0.1122049, 0.1150000, 0.1177951, 0.1195225, 0.1200000
HAMT cells, KITCHEN_L3_QC100,SINGLE_BRICK_INTERNAL_WALL,   1,   2,   3,   4,   5,   6,   7,   8,   9,  10,  11,  12,  13,  14,  15,  16,  17,  18,  19,  20,  21,  22
HAMT origins,KITCHEN_L3_QC100,SINGLE_BRICK_INTERNAL_WALL, 0.0000000, 0.0004775, 0.0022049, 0.0050000, 0.0077951, 0.0095225, 0.0112236, 0.0159982, 0.0250799, 0.0375799, 0.0522746, 0.0677254, 0.0824201, 0.0949201, 0.1040018, 0.1087764, 0.1104775, 0.1122049, 0.1150000, 0.1177951, 0.1195225, 0.1200000
HAMT cells, KITCHEN_L1_PU,SOLID_BRICK_RANDOMU,   1,   2,   3,   4,   5,   6,   7,   8,   9,  10,  11,  12,  13,  14,  15,  16,  17,  18,  19,  20,  21,  22,  23
HAMT origins,KITCHEN_L1_PU,SOLID_BRICK_RANDOMU, 0.0000000, 0.0013459, 0.0065980, 0.0165879, 0.0303379, 0.0465020, 0.0634980, 0.0796621, 0.0934121, 0.1034020, 0.1086541, 0.1105106, 0.1124163, 0.1157171, 0.1195285, 0.1228293, 0.1247350, 0.1257231, 0.1274505, 0.1302456, 0.1330407, 0.1347682, 0.1352456
HAMT cells, KITCHEN_L1_PD,SOLID_BRICK_RANDOMU,   1,   2,   3,   4,   5,   6,   7,   8,   9,  10,  11,  12,  13,  14,  15,  16,  17,  18,  19,  20,  21,  22,  23
HAMT origins,KITCHEN_L1_PD,SOLID_BRICK_RANDOMU, 0.0000000, 0.0013459, 0.0065980, 0.0165879, 0.0303379, 0.0465020, 0.0634980, 0.0796621, 0.0934121, 0.1034020, 0.1086541, 0.1105106, 0.1124163, 0.1157171, 0.1195285, 0.1228293, 0.1247350, 0.1257231, 0.1274505, 0.1302456, 0.1330407, 0.1347682, 0.1352456
HAMT cells, KITCHEN_L4_PU,SOLID_BRICK_RANDOMU,   1,   2,   3,   4,   5,   6,   7,   8,   9,  10,  11,  12,  13,  14,  15,  16,  17,  18,  19,  20,  21,  22,  23
HAMT origins,KITCHEN_L4_PU,SOLID_BRICK_RANDOMU, 0.0000000, 0.0013459, 0.0065980, 0.0165879, 0.0303379, 0.0465020, 0.0634980, 0.0796621, 0.0934121, 0.1034020, 0.1086541, 0.1105106, 0.1124163, 0.1157171, 0.1195285, 0.1228293, 0.1247350, 0.1257231, 0.1274505, 0.1302456, 0.1330407, 0.1347682, 0.1352456
HAMT cells, KITCHEN_L4_PD,SOLID_BRICK_RANDOMU,   1,   2,   3,   4,   5,   6,   7,   8,   9,  10,  11,  12,  13,  14,  15,  16,  17,  18,  19,  20,  21,  22,  23
HAMT origins,KITCHEN_L4_PD,SOLID_BRICK_RANDOMU, 0.0000000, 0.0013459, 0.0065980, 0.0165879, 0.0303379, 0.0465020, 0.0634980, 0.0796621, 0.0934121, 0.1034020, 0.1086541, 0.1105106, 0.1124163, 0.1157171, 0.1195285, 0.1228293, 0.1247350, 0.1257231, 0.1274505, 0.1302456, 0.1330407, 0.1347682, 0.1352456
HAMT cells, KITCHEN_FLOOR,SUSPENDED_WOODEN_FLOOR,   1,   2,   3,   4,   5,   6,   7,   8,   9,  10,  11,  12,  13,  14,  15,  16,  17,  18,  19,  20,  21,  22,  23,  24,  25,  26,  27
HAMT origins,KITCHEN_FLOOR,SUSPENDED_WOODEN_FLOOR, 0.0000000, 0.0004775, 0.0022049, 0.0050000, 0.0077951, 0.0095225, 0.0112236, 0.0159982, 0.0250799, 0.0375799, 0.0522746, 0.0677254, 0.0824201, 0.0949201, 0.1040018, 0.1087764, 0.1106118, 0.1129991, 0.1175400, 0.1237900, 0.1311373, 0.1388627, 0.1462100, 0.1524600, 0.1570009, 0.1593882, 0.1600000
HAMT cells, KITCHEN_FLOOR_QC100,SUSPENDED_WOODEN_FLOOR,   1,   2,   3,   4,   5,   6,   7,   8,   9,  10,  11,  12,  13,  14,  15,  16,  17,  18,  19,  20,  21,  22,  23,  24,  25,  26,  27
HAMT origins,KITCHEN_FLOOR_QC100,SUSPENDED_WOODEN_FLOOR, 0.0000000, 0.0004775, 0.0022049, 0.0050000, 0.0077951, 0.0095225, 0.0112236, 0.0159982, 0.0250799, 0.0375799, 0.0522746, 0.0677254, 0.0824201, 0.0949201, 0.1040018, 0.1087764, 0.1106118, 0.1129991, 0.1175400, 0.1237900, 0.1311373, 0.1388627, 0.1462100, 0.1524600, 0.1570009, 0.1593882, 0.1600000
HAMT cells, KITCHEN_CEILING,SUSPENDED_WOODEN_CEILING,   1,   2,   3,   4,   5,   6,   7,   8,   9,  10,  11,  12,  13,  14,  15,  16,  17,  18,  19,  20,  21,  22,  23,  24,  25,  26,  27
HAMT origins,KITCHEN_CEILING,SUSPENDED_WOODEN_CEILING, 0.0000000, 0.0006118, 0.0029991, 0.0075400, 0.0137900, 0.0211373, 0.0288627, 0.0362100, 0.0424600, 0.0470009, 0.0493882, 0.0512236, 0.0559982, 0.0650799, 0.0775799, 0.0922746, 0.1077254, 0.1224201, 0.1349201, 0.1440018, 0.1487764, 0.1504775, 0.1522049, 0.1550000, 0.1577951, 0.1595225, 0.1600000
HAMT cells, KITCHEN_CEILING_QA100,SUSPENDED_WOODEN_CEILING,   1,   2,   3,   4,   5,   6,   7,   8,   9,  10,  11,  12,  13,  14,  15,  16,  17,  18,  19,  20,  21,  22,  23,  24,  25,  26,  27
HAMT origins,KITCHEN_CEILING_QA100,SUSPENDED_WOODEN_CEILING, 0.0000000, 0.0006118, 0.0029991, 0.0075400, 0.0137900, 0.0211373, 0.0288627, 0.0362100, 0.0424600, 0.0470009, 0.0493882, 0.0512236, 0.0559982, 0.0650799, 0.0775799, 0.0922746, 0.1077254, 0.1224201, 0.1349201, 0.1440018, 0.1487764, 0.1504775, 0.1522049, 0.1550000, 0.1577951, 0.1595225, 0.1600000
HAMT cells, KITCHEN_CEILING_QB100,SUSPENDED_WOODEN_CEILING,   1,   2,   3,   4,   5,   6,   7,   8,   9,  10,  11,  12,  13,  14,  15,  16,  17,  18,  19,  20,  21,  22,  23,  24,  25,  26,  27
HAMT origins,KITCHEN_CEILING_QB100,SUSPENDED_WOODEN_CEILING, 0.0000000, 0.0006118, 0.0029991, 0.0075400, 0.0137900, 0.0211373, 0.0288627, 0.0362100, 0.0424600, 0.0470009, 0.0493882, 0.0512236, 0.0559982, 0.0650799, 0.0775799, 0.0922746, 0.1077254, 0.1224201, 0.1349201, 0.1440018, 0.1487764, 0.1504775, 0.1522049, 0.1550000, 0.1577951, 0.1595225, 0.1600000
HAMT cells, KITCHEN_CEILING_QC100,SUSPENDED_WOODEN_CEILING,   1,   2,   3,   4,   5,   6,   7,   8,   9,  10,  11,  12,  13,  14,  15,  16,  17,  18,  19,  20,  21,  22,  23,  24,  25,  26,  27
HAMT origins,KITCHEN_CEILING_QC100,SUSPENDED_WOODEN_CEILING, 0.0000000, 0.0006118, 0.0029991, 0.0075400, 0.0137900, 0.0211373, 0.0288627, 0.0362100, 0.0424600, 0.0470009, 0.0493882, 0.0512236, 0.0559982, 0.0650799, 0.0775799, 0.0922746, 0.1077254, 0.1224201, 0.1349201, 0.1440018, 0.1487764, 0.1504775, 0.1522049, 0.1550000, 0.1577951, 0.1595225, 0.1600000
HAMT cells, ATTIC_SIDE_L2,SOLID_BRICK_RANDOMU,   1,   2,   3,   4,   5,   6,   7,   8,   9,  10,  11,  12,  13,  14,  15,  16,  17,  18,  19,  20,  21,  22,  23
HAMT origins,ATTIC_SIDE_L2,SOLID_BRICK_RANDOMU, 0.0000000, 0.0013459, 0.0065980, 0.0165879, 0.0303379, 0.0465020, 0.0634980, 0.0796621, 0.0934121, 0.1034020, 0.1086541, 0.1105106, 0.1124163, 0.1157171, 0.1195285, 0.1228293, 0.1247350, 0.1257231, 0.1274505, 0.1302456, 0.1330407, 0.1347682, 0.1352456
HAMT cells, ATTIC_SIDE_L4,SOLID_BRICK_RANDOMU,   1,   2,   3,   4,   5,   6,   7,   8,   9,  10,  11,  12,  13,  14,  15,  16,  17,  18,  19,  20,  21,  22,  23
HAMT origins,ATTIC_SIDE_L4,SOLID_BRICK_RANDOMU, 0.0000000, 0.0013459, 0.0065980, 0.0165879, 0.0303379, 0.0465020, 0.0634980, 0.0796621, 0.0934121, 0.1034020, 0.1086541, 0.1105106, 0.1124163, 0.1157171, 0.1195285, 0.1228293, 0.1247350, 0.1257231, 0.1274505, 0.1302456, 0.1330407, 0.1347682, 0.1352456
HAMT cells, ATTIC_SIDE_L4_PU,SOLID_BRICK_RANDOMU,   1,   2,   3,   4,   5,   6,   7,   8,   9,  10,  11,  12,  13,  14,  15,  16,  17,  18,  19,  20,  21,  22,  23
HAMT origins,ATTIC_SIDE_L4_PU,SOLID_BRICK_RANDOMU, 0.0000000, 0.0013459, 0.0065980, 0.0165879, 0.0303379, 0.0465020, 0.0634980, 0.0796621, 0.0934121, 0.1034020, 0.1086541, 0.1105106, 0.1124163, 0.1157171, 0.1195285, 0.1228293, 0.1247350, 0.1257231, 0.1274505, 0.1302456, 0.1330407, 0.1347682, 0.1352456
HAMT cells, ATTIC_SIDE_L4_PD,SOLID_BRICK_RANDOMU,   1,   2,   3,   4,   5,   6,   7,   8,   9,  10,  11,  12,  13,  14,  15,  16,  17,  18,  19,  20,  21,  22,  23
HAMT origins,ATTIC_SIDE_L4_PD,SOLID_BRICK_RANDOMU, 0.0000000, 0.0013459, 0.0065980, 0.0165879, 0.0303379, 0.0465020, 0.0634980, 0.0796621, 0.0934121, 0.1034020, 0.1086541, 0.1105106, 0.1124163, 0.1157171, 0.1195285, 0.1228293, 0.1247350, 0.1257231, 0.1274505, 0.1302456, 0.1330407, 0.1347682, 0.1352456
HAMT cells, ATTIC_FLOOR,LOFTFLOOR_RANDOMU,   1,   2,   3,   4,   5,   6,   7,   8,   9,  10,  11,  12,  13,  14,  15,  16,  17,  18,  19,  20,  21,  22,  23,  24,  25,  26,  27
HAMT origins,ATTIC_FLOOR,LOFTFLOOR_RANDOMU, 0.0000000, 0.0004775, 0.0022049, 0.0050000, 0.0077951, 0.0095225, 0.0105968, 0.0127561, 0.0162500, 0.0197439, 0.0219032, 0.0254079, 0.0367550, 0.0583383, 0.0880453, 0.1229679, 0.1596877, 0.1946103, 0.2243173, 0.2459007, 0.2572477, 0.2606331, 0.2623605, 0.2651556, 0.2679507, 0.2696782, 0.2701556
HAMT cells, ATTIC_FLOOR_QA100,LOFTFLOOR_RANDOMU,   1,   2,   3,   4,   5,   6,   7,   8,   9,  10,  11,  12,  13,  14,  15,  16,  17,  18,  19,  20,  21,  22,  23,  24,  25,  26,  27
HAMT origins,ATTIC_FLOOR_QA100,LOFTFLOOR_RANDOMU, 0.0000000, 0.0004775, 0.0022049, 0.0050000, 0.0077951, 0.0095225, 0.0105968, 0.0127561, 0.0162500, 0.0197439, 0.0219032, 0.0254079, 0.0367550, 0.0583383, 0.0880453, 0.1229679, 0.1596877, 0.1946103, 0.2243173, 0.2459007, 0.2572477, 0.2606331, 0.2623605, 0.2651556, 0.2679507, 0.2696782, 0.2701556
HAMT cells, ATTIC_FLOOR_QB100,LOFTFLOOR_RANDOMU,   1,   2,   3,   4,   5,   6,   7,   8,   9,  10,  11,  12,  13,  14,  15,  16,  17,  18,  19,  20,  21,  22,  23,  24,  25,  26,  27
HAMT origins,ATTIC_FLOOR_QB100,LOFTFLOOR_RANDOMU, 0.0000000, 0.0004775, 0.0022049, 0.0050000, 0.0077951, 0.0095225, 0.0105968, 0.0127561, 0.0162500, 0.0197439, 0.0219032, 0.0254079, 0.0367550, 0.0583383, 0.0880453, 0.1229679, 0.1596877, 0.1946103, 0.2243173, 0.2459007, 0.2572477, 0.2606331, 0.2623605, 0.2651556, 0.2679507, 0.2696782, 0.2701556
HAMT cells, ATTIC_FLOOR_QC100,LOFTFLOOR_RANDOMU,   1,   2,   3,   4,   5,   6,   7,   8,   9,  10,  11,  12,  13,  14,  15,  16,  17,  18,  19,  20,  21,  22,  23,  24,  25,  26,  27
[...]
HAMT cells, BEDROOM3_DOOR_TOPHALL,WOODEN_DOOR,   1,   2,   3,   4,   5,   6,   7,   8,   9,  10,  11,  12
HAMT origins,BEDROOM3_DOOR_TOPHALL,WOODEN_DOOR, 0.0000000, 0.0004894, 0.0023993, 0.0060320, 0.0110320, 0.0169098, 0.0230902, 0.0289680, 0.0339680, 0.0376007, 0.0395106, 0.0400000
HAMT cells, BEDROOM3_L3_PU,SOLID_BRICK_RANDOMU,   1,   2,   3,   4,   5,   6,   7,   8,   9,  10,  11,  12,  13,  14,  15,  16,  17,  18,  19,  20,  21,  22,  23
HAMT origins,BEDROOM3_L3_PU,SOLID_BRICK_RANDOMU, 0.0000000, 0.0013459, 0.0065980, 0.0165879, 0.0303379, 0.0465020, 0.0634980, 0.0796621, 0.0934121, 0.1034020, 0.1086541, 0.1105106, 0.1124163, 0.1157171, 0.1195285, 0.1228293, 0.1247350, 0.1257231, 0.1274505, 0.1302456, 0.1330407, 0.1347682, 0.1352456
HAMT cells, BEDROOM3_L3_PD,SOLID_BRICK_RANDOMU,   1,   2,   3,   4,   5,   6,   7,   8,   9,  10,  11,  12,  13,  14,  15,  16,  17,  18,  19,  20,  21,  22,  23
HAMT origins,BEDROOM3_L3_PD,SOLID_BRICK_RANDOMU, 0.0000000, 0.0013459, 0.0065980, 0.0165879, 0.0303379, 0.0465020, 0.0634980, 0.0796621, 0.0934121, 0.1034020, 0.1086541, 0.1105106, 0.1124163, 0.1157171, 0.1195285, 0.1228293, 0.1247350, 0.1257231, 0.1274505, 0.1302456, 0.1330407, 0.1347682, 0.1352456
HAMT cells, BEDROOM3_L4_PU,SOLID_BRICK_RANDOMU,   1,   2,   3,   4,   5,   6,   7,   8,   9,  10,  11,  12,  13,  14,  15,  16,  17,  18,  19,  20,  21,  22,  23
HAMT origins,BEDROOM3_L4_PU,SOLID_BRICK_RANDOMU, 0.0000000, 0.0013459, 0.0065980, 0.0165879, 0.0303379, 0.0465020, 0.0634980, 0.0796621, 0.0934121, 0.1034020, 0.1086541, 0.1105106, 0.1124163, 0.1157171, 0.1195285, 0.1228293, 0.1247350, 0.1257231, 0.1274505, 0.1302456, 0.1330407, 0.1347682, 0.1352456
HAMT cells, BEDROOM3_L4_PD,SOLID_BRICK_RANDOMU,   1,   2,   3,   4,   5,   6,   7,   8,   9,  10,  11,  12,  13,  14,  15,  16,  17,  18,  19,  20,  21,  22,  23
HAMT origins,BEDROOM3_L4_PD,SOLID_BRICK_RANDOMU, 0.0000000, 0.0013459, 0.0065980, 0.0165879, 0.0303379, 0.0465020, 0.0634980, 0.0796621, 0.0934121, 0.1034020, 0.1086541, 0.1105106, 0.1124163, 0.1157171, 0.1195285, 0.1228293, 0.1247350, 0.1257231, 0.1274505, 0.1302456, 0.1330407, 0.1347682, 0.1352456
HAMT cells, BEDROOM3_FLOOR,SUSPENDED_WOODEN_FLOOR,   1,   2,   3,   4,   5,   6,   7,   8,   9,  10,  11,  12,  13,  14,  15,  16,  17,  18,  19,  20,  21,  22,  23,  24,  25,  26,  27
HAMT origins,BEDROOM3_FLOOR,SUSPENDED_WOODEN_FLOOR, 0.0000000, 0.0004775, 0.0022049, 0.0050000, 0.0077951, 0.0095225, 0.0112236, 0.0159982, 0.0250799, 0.0375799, 0.0522746, 0.0677254, 0.0824201, 0.0949201, 0.1040018, 0.1087764, 0.1106118, 0.1129991, 0.1175400, 0.1237900, 0.1311373, 0.1388627, 0.1462100, 0.1524600, 0.1570009, 0.1593882, 0.1600000
HAMT cells, BEDROOM3_FLOOR_QC100,SUSPENDED_WOODEN_FLOOR,   1,   2,   3,   4,   5,   6,   7,   8,   9,  10,  11,  12,  13,  14,  15,  16,  17,  18,  19,  20,  21,  22,  23,  24,  25,  26,  27
HAMT origins,BEDROOM3_FLOOR_QC100,SUSPENDED_WOODEN_FLOOR, 0.0000000, 0.0004775, 0.0022049, 0.0050000, 0.0077951, 0.0095225, 0.0112236, 0.0159982, 0.0250799, 0.0375799, 0.0522746, 0.0677254, 0.0824201, 0.0949201, 0.1040018, 0.1087764, 0.1106118, 0.1129991, 0.1175400, 0.1237900, 0.1311373, 0.1388627, 0.1462100, 0.1524600, 0.1570009, 0.1593882, 0.1600000
HAMT cells, BEDROOM3_CEILING,LOFTCEILING_RANDOMU,   1,   2,   3,   4,   5,   6,   7,   8,   9,  10,  11,  12,  13,  14,  15,  16,  17,  18,  19,  20,  21,  22,  23,  24,  25,  26,  27
HAMT origins,BEDROOM3_CEILING,LOFTCEILING_RANDOMU, 0.0000000, 0.0004775, 0.0022049, 0.0050000, 0.0077951, 0.0095225, 0.0129079, 0.0242550, 0.0458383, 0.0755453, 0.1104679, 0.1471877, 0.1821103, 0.2118173, 0.2334007, 0.2447477, 0.2482524, 0.2504118, 0.2539056, 0.2573995, 0.2595588, 0.2606331, 0.2623605, 0.2651556, 0.2679507, 0.2696782, 0.2701556
HAMT cells, LIVING_L1,SINGLE_BRICK_INTERNAL_WALL,   1,   2,   3,   4,   5,   6,   7,   8,   9,  10,  11,  12,  13,  14,  15,  16,  17,  18,  19,  20,  21,  22
HAMT origins,LIVING_L1,SINGLE_BRICK_INTERNAL_WALL, 0.0000000, 0.0004775, 0.0022049, 0.0050000, 0.0077951, 0.0095225, 0.0112236, 0.0159982, 0.0250799, 0.0375799, 0.0522746, 0.0677254, 0.0824201, 0.0949201, 0.1040018, 0.1087764, 0.1104775, 0.1122049, 0.1150000, 0.1177951, 0.1195225, 0.1200000
HAMT cells, LIVING_L2,SOLID_BRICK_RANDOMU,   1,   2,   3,   4,   5,   6,   7,   8,   9,  10,  11,  12,  13,  14,  15,  16,  17,  18,  19,  20,  21,  22,  23
HAMT origins,LIVING_L2,SOLID_BRICK_RANDOMU, 0.0000000, 0.0013459, 0.0065980, 0.0165879, 0.0303379, 0.0465020, 0.0634980, 0.0796621, 0.0934121, 0.1034020, 0.1086541, 0.1105106, 0.1124163, 0.1157171, 0.1195285, 0.1228293, 0.1247350, 0.1257231, 0.1274505, 0.1302456, 0.1330407, 0.1347682, 0.1352456
HAMT cells, LIVING_L3,SOLID_BRICK_RANDOMU,   1,   2,   3,   4,   5,   6,   7,   8,   9,  10,  11,  12,  13,  14,  15,  16,  17,  18,  19,  20,  21,  22,  23
HAMT origins,LIVING_L3,SOLID_BRICK_RANDOMU, 0.0000000, 0.0013459, 0.0065980, 0.0165879, 0.0303379, 0.0465020, 0.0634980, 0.0796621, 0.0934121, 0.1034020, 0.1086541, 0.1105106, 0.1124163, 0.1157171, 0.1195285, 0.1228293, 0.1247350, 0.1257231, 0.1274505, 0.1302456, 0.1330407, 0.1347682, 0.1352456
HAMT cells, LIVING_L4,SINGLE_BRICK_INTERNAL_WALL,   1,   2,   3,   4,   5,   6,   7,   8,   9,  10,  11,  12,  13,  14,  15,  16,  17,  18,  19,  20,  21,  22
HAMT origins,LIVING_L4,SINGLE_BRICK_INTERNAL_WALL, 0.0000000, 0.0004775, 0.0022049, 0.0050000, 0.0077951, 0.0095225, 0.0112236, 0.0159982, 0.0250799, 0.0375799, 0.0522746, 0.0677254, 0.0824201, 0.0949201, 0.1040018, 0.1087764, 0.1104775, 0.1122049, 0.1150000, 0.1177951, 0.1195225, 0.1200000
HAMT cells, LIVING_DOOR_HALL,WOODEN_DOOR,   1,   2,   3,   4,   5,   6,   7,   8,   9,  10,  11,  12
HAMT origins,LIVING_DOOR_HALL,WOODEN_DOOR, 0.0000000, 0.0004894, 0.0023993, 0.0060320, 0.0110320, 0.0169098, 0.0230902, 0.0289680, 0.0339680, 0.0376007, 0.0395106, 0.0400000
HAMT cells, LIVING_L1_QA001,SINGLE_BRICK_INTERNAL_WALL,   1,   2,   3,   4,   5,   6,   7,   8,   9,  10,  11,  12,  13,  14,  15,  16,  17,  18,  19,  20,  21,  22
HAMT origins,LIVING_L1_QA001,SINGLE_BRICK_INTERNAL_WALL, 0.0000000, 0.0004775, 0.0022049, 0.0050000, 0.0077951, 0.0095225, 0.0112236, 0.0159982, 0.0250799, 0.0375799, 0.0522746, 0.0677254, 0.0824201, 0.0949201, 0.1040018, 0.1087764, 0.1104775, 0.1122049, 0.1150000, 0.1177951, 0.1195225, 0.1200000
HAMT cells, LIVING_L4_QC010,SINGLE_BRICK_INTERNAL_WALL,   1,   2,   3,   4,   5,   6,   7,   8,   9,  10,  11,  12,  13,  14,  15,  16,  17,  18,  19,  20,  21,  22
HAMT origins,LIVING_L4_QC010,SINGLE_BRICK_INTERNAL_WALL, 0.0000000, 0.0004775, 0.0022049, 0.0050000, 0.0077951, 0.0095225, 0.0112236, 0.0159982, 0.0250799, 0.0375799, 0.0522746, 0.0677254, 0.0824201, 0.0949201, 0.1040018, 0.1087764, 0.1104775, 0.1122049, 0.1150000, 0.1177951, 0.1195225, 0.1200000
HAMT cells, LIVING_L3_PU,SOLID_BRICK_RANDOMU,   1,   2,   3,   4,   5,   6,   7,   8,   9,  10,  11,  12,  13,  14,  15,  16,  17,  18,  19,  20,  21,  22,  23
HAMT origins,LIVING_L3_PU,SOLID_BRICK_RANDOMU, 0.0000000, 0.0013459, 0.0065980, 0.0165879, 0.0303379, 0.0465020, 0.0634980, 0.0796621, 0.0934121, 0.1034020, 0.1086541, 0.1105106, 0.1124163, 0.1157171, 0.1195285, 0.1228293, 0.1247350, 0.1257231, 0.1274505, 0.1302456, 0.1330407, 0.1347682, 0.1352456
HAMT cells, LIVING_L3_PD,SOLID_BRICK_RANDOMU,   1,   2,   3,   4,   5,   6,   7,   8,   9,  10,  11,  12,  13,  14,  15,  16,  17,  18,  19,  20,  21,  22,  23
HAMT origins,LIVING_L3_PD,SOLID_BRICK_RANDOMU, 0.0000000, 0.0013459, 0.0065980, 0.0165879, 0.0303379, 0.0465020, 0.0634980, 0.0796621, 0.0934121, 0.1034020, 0.1086541, 0.1105106, 0.1124163, 0.1157171, 0.1195285, 0.1228293, 0.1247350, 0.1257231, 0.1274505, 0.1302456, 0.1330407, 0.1347682, 0.1352456
HAMT cells, LIVING_FLOOR,SUSPENDED_WOODEN_FLOOR,   1,   2,   3,   4,   5,   6,   7,   8,   9,  10,  11,  12,  13,  14,  15,  16,  17,  18,  19,  20,  21,  22,  23,  24,  25,  26,  27
HAMT origins,LIVING_FLOOR,SUSPENDED_WOODEN_FLOOR, 0.0000000, 0.0004775, 0.0022049, 0.0050000, 0.0077951, 0.0095225, 0.0112236, 0.0159982, 0.0250799, 0.0375799, 0.0522746, 0.0677254, 0.0824201, 0.0949201, 0.1040018, 0.1087764, 0.1106118, 0.1129991, 0.1175400, 0.1237900, 0.1311373, 0.1388627, 0.1462100, 0.1524600, 0.1570009, 0.1593882, 0.1600000
HAMT cells, LIVING_FLOOR_QC100,SUSPENDED_WOODEN_FLOOR,   1,   2,   3,   4,   5,   6,   7,   8,   9,  10,  11,  12,  13,  14,  15,  16,  17,  18,  19,  20,  21,  22,  23,  24,  25,  26,  27
HAMT origins,LIVING_FLOOR_QC100,SUSPENDED_WOODEN_FLOOR, 0.0000000, 0.0004775, 0.0022049, 0.0050000, 0.0077951, 0.0095225, 0.0112236, 0.0159982, 0.0250799, 0.0375799, 0.0522746, 0.0677254, 0.0824201, 0.0949201, 0.1040018, 0.1087764, 0.1106118, 0.1129991, 0.1175400, 0.1237900, 0.1311373, 0.1388627, 0.1462100, 0.1524600, 0.1570009, 0.1593882, 0.1600000
HAMT cells, LIVING_FLOOR_QA100,SUSPENDED_WOODEN_FLOOR,   1,   2,   3,   4,   5,   6,   7,   8,   9,  10,  11,  12,  13,  14,  15,  16,  17,  18,  19,  20,  21,  22,  23,  24,  25,  26,  27
HAMT origins,LIVING_FLOOR_QA100,SUSPENDED_WOODEN_FLOOR, 0.0000000, 0.0004775, 0.0022049, 0.0050000, 0.0077951, 0.0095225, 0.0112236, 0.0159982, 0.0250799, 0.0375799, 0.0522746, 0.0677254, 0.0824201, 0.0949201, 0.1040018, 0.1087764, 0.1106118, 0.1129991, 0.1175400, 0.1237900, 0.1311373, 0.1388627, 0.1462100, 0.1524600, 0.1570009, 0.1593882, 0.1600000
HAMT cells, LIVING_CEILING,SUSPENDED_WOODEN_CEILING,   1,   2,   3,   4,   5,   6,   7,   8,   9,  10,  11,  12,  13,  14,  15,  16,  17,  18,  19,  20,  21,  22,  23,  24,  25,  26,  27
HAMT origins,LIVING_CEILING,SUSPENDED_WOODEN_CEILING, 0.0000000, 0.0006118, 0.0029991, 0.0075400, 0.0137900, 0.0211373, 0.0288627, 0.0362100, 0.0424600, 0.0470009, 0.0493882, 0.0512236, 0.0559982, 0.0650799, 0.0775799, 0.0922746, 0.1077254, 0.1224201, 0.1349201, 0.1440018, 0.1487764, 0.1504775, 0.1522049, 0.1550000, 0.1577951, 0.1595225, 0.1600000
HAMT cells, LIVING_CEILING_QA100,SUSPENDED_WOODEN_CEILING,   1,   2,   3,   4,   5,   6,   7,   8,   9,  10,  11,  12,  13,  14,  15,  16,  17,  18,  19,  20,  21,  22,  23,  24,  25,  26,  27
HAMT origins,LIVING_CEILING_QA100,SUSPENDED_WOODEN_CEILING, 0.0000000, 0.0006118, 0.0029991, 0.0075400, 0.0137900, 0.0211373, 0.0288627, 0.0362100, 0.0424600, 0.0470009, 0.0493882, 0.0512236, 0.0559982, 0.0650799, 0.0775799, 0.0922746, 0.1077254, 0.1224201, 0.1349201, 0.1440018, 0.1487764, 0.1504775, 0.1522049, 0.1550000, 0.1577951, 0.1595225, 0.1600000
HAMT cells, LIVING_CEILING_QB100,SUSPENDED_WOODEN_CEILING,   1,   2,   3,   4,   5,   6,   7,   8,   9,  10,  11,  12,  13,  14,  15,  16,  17,  18,  19,  20,  21,  22,  23,  24,  25,  26,  27
HAMT origins,LIVING_CEILING_QB100,SUSPENDED_WOODEN_CEILING, 0.0000000, 0.0006118, 0.0029991, 0.0075400, 0.0137900, 0.0211373, 0.0288627, 0.0362100, 0.0424600, 0.0470009, 0.0493882, 0.0512236, 0.0559982, 0.0650799, 0.0775799, 0.0922746, 0.1077254, 0.1224201, 0.1349201, 0.1440018, 0.1487764, 0.1504775, 0.1522049, 0.1550000, 0.1577951, 0.1595225, 0.1600000
HAMT cells, LIVING_CEILING_QC100,SUSPENDED_WOODEN_CEILING,   1,   2,   3,   4,   5,   6,   7,   8,   9,  10,  11,  12,  13,  14,  15,  16,  17,  18,  19,  20,  21,  22,  23,  24,  25,  26,  27
HAMT origins,LIVING_CEILING_QC100,SUSPENDED_WOODEN_CEILING, 0.0000000, 0.0006118, 0.0029991, 0.0075400, 0.0137900, 0.0211373, 0.0288627, 0.0362100, 0.0424600, 0.0470009, 0.0493882, 0.0512236, 0.0559982, 0.0650799, 0.0775799, 0.0922746, 0.1077254, 0.1224201, 0.1349201, 0.1440018, 0.1487764, 0.1504775, 0.1522049, 0.1550000, 0.1577951, 0.1595225, 0.1600000
HAMT cells, LIVING_CEILING_QB100_QC100,SUSPENDED_WOODEN_CEILING,   1,   2,   3,   4,   5,   6,   7,   8,   9,  10,  11,  12,  13,  14,  15,  16,  17,  18,  19,  20,  21,  22,  23,  24,  25,  26,  27
HAMT origins,LIVING_CEILING_QB100_QC100,SUSPENDED_WOODEN_CEILING, 0.0000000, 0.0006118, 0.0029991, 0.0075400, 0.0137900, 0.0211373, 0.0288627, 0.0362100, 0.0424600, 0.0470009, 0.0493882, 0.0512236, 0.0559982, 0.0650799, 0.0775799, 0.0922746, 0.1077254, 0.1224201, 0.1349201, 0.1440018, 0.1487764, 0.1504775, 0.1522049, 0.1550000, 0.1577951, 0.1595225, 0.1600000
HAMT cells, LIVING_CEILING_QC100_QC100,SUSPENDED_WOODEN_CEILING,   1,   2,   3,   4,   5,   6,   7,   8,   9,  10,  11,  12,  13,  14,  15,  16,  17,  18,  19,  20,  21,  22,  23,  24,  25,  26,  27
HAMT origins,LIVING_CEILING_QC100_QC100,SUSPENDED_WOODEN_CEILING, 0.0000000, 0.0006118, 0.0029991, 0.0075400, 0.0137900, 0.0211373, 0.0288627, 0.0362100, 0.0424600, 0.0470009, 0.0493882, 0.0512236, 0.0559982, 0.0650799, 0.0775799, 0.0922746, 0.1077254, 0.1224201, 0.1349201, 0.1440018, 0.1487764, 0.1504775, 0.1522049, 0.1550000, 0.1577951, 0.1595225, 0.1600000
! <RoomAir Model>, Zone Name, Mixing/Mundt/UCSDDV/UCSDCV/UCSDUFI/UCSDUFE/User Defined
RoomAir Model,STAIRCASE,Mixing/Well-Stirred
RoomAir Model,DINING,Mixing/Well-Stirred
RoomAir Model,CELLAR,Mixing/Well-Stirred
RoomAir Model,TOPHALL,Mixing/Well-Stirred
RoomAir Model,BEDROOM2,Mixing/Well-Stirred
RoomAir Model,BATH1,Mixing/Well-Stirred
RoomAir Model,BEDROOM1,Mixing/Well-Stirred
RoomAir Model,KITCHEN,Mixing/Well-Stirred
RoomAir Model,ATTIC,Mixing/Well-Stirred
RoomAir Model,HALL,Mixing/Well-Stirred
RoomAir Model,BEDROOM3,Mixing/Well-Stirred
RoomAir Model,LIVING,Mixing/Well-Stirred
! <AirflowNetwork Model:Control>, No Multizone or Distribution/Multizone with Distribution/Multizone without Distribution/Multizone with Distribution only during Fan Operation
AirflowNetwork Model:Control,MultizoneWithoutDistribution
! <AirflowNetwork Model:Wind Direction>, Wind Direction #1 to n (degree)
AirflowNetwork Model:Wind Direction, 0.0,30.0,60.0,90.0,120.0,150.0,180.0,210.0,240.0,270.0,300.0,330.0,360.0
! <AirflowNetwork Model:Wind Pressure Coefficients>, Name, Wind Pressure Coefficients #1 to n (dimensionless)
AirflowNetwork Model:Wind Pressure Coefficients, CEILING, 0.00,0.00,0.00,0.00,0.00,0.00,0.00,0.00,0.00,0.00,0.00,0.00,0.00
AirflowNetwork Model:Wind Pressure Coefficients, L1, 0.60,0.48,0.18,-0.34,-0.63,-0.37,-0.45,-0.37,-0.63,-0.34,0.18,0.48,0.60
AirflowNetwork Model:Wind Pressure Coefficients, L4, -0.34,-0.63,-0.37,-0.45,-0.37,-0.63,-0.34,0.18,0.48,0.60,0.60,0.48,0.18
AirflowNetwork Model:Wind Pressure Coefficients, FLOOR, 0.00,0.00,0.00,0.00,0.00,0.00,0.00,0.00,0.00,0.00,0.00,0.00,0.00
AirflowNetwork Model:Wind Pressure Coefficients, L3, -0.45,-0.37,-0.63,-0.34,0.18,0.48,0.60,0.48,0.18,-0.34,-0.63,-0.37,-0.45
AirflowNetwork Model:Wind Pressure Coefficients, L2, -0.34,0.18,0.48,0.60,0.60,0.48,0.18,-0.34,-0.63,-0.37,-0.45,-0.37,-0.63
! <Zone Volume Capacitance Multiplier>, Sensible Heat Capacity Multiplier, Moisture Capacity Multiplier, Carbon Dioxide Capacity Multiplier, Generic Contaminant Capacity Multiplier
Zone Volume Capacitance Multiplier,   1.000 ,   1.000,   1.000,   1.000
! <Component Sizing Information>, Component Type, Component Name, Input Field Description, Value
 Component Sizing Information, ZoneHVAC:Baseboard:Convective:Electric, STAIRCASE_HEATER, User-Specified Nominal Capacity [W], 35.44447
 Component Sizing Information, ZoneHVAC:Baseboard:Convective:Electric, DINING_HEATER, User-Specified Nominal Capacity [W], 307.92157
 Component Sizing Information, ZoneHVAC:Baseboard:Convective:Electric, TOPHALL_HEATER, User-Specified Nominal Capacity [W], 94.28789
 Component Sizing Information, ZoneHVAC:Baseboard:Convective:Electric, BEDROOM2_HEATER, User-Specified Nominal Capacity [W], 282.74702
 Component Sizing Information, Fan:ZoneExhaust, BATH1_L1_PU_EXHAUSTFAN, User-Specified Maximum Flow Rate [m3/s], 1.50000E-002
 Component Sizing Information, ZoneHVAC:Baseboard:Convective:Electric, BATH1_HEATER, User-Specified Nominal Capacity [W], 140.67364
 Component Sizing Information, ZoneHVAC:Baseboard:Convective:Electric, BEDROOM1_HEATER, User-Specified Nominal Capacity [W], 360.50245
 Component Sizing Information, Fan:ZoneExhaust, KITCHEN_L1_PU_EXHAUSTFAN, User-Specified Maximum Flow Rate [m3/s], 6.00000E-002
 Component Sizing Information, ZoneHVAC:Baseboard:Convective:Electric, KITCHEN_HEATER, User-Specified Nominal Capacity [W], 238.88857
 Component Sizing Information, ZoneHVAC:Baseboard:Convective:Electric, HALL_HEATER, User-Specified Nominal Capacity [W], 177.48156
 Component Sizing Information, ZoneHVAC:Baseboard:Convective:Electric, BEDROOM3_HEATER, User-Specified Nominal Capacity [W], 156.30405
 Component Sizing Information, ZoneHVAC:Baseboard:Convective:Electric, LIVING_HEATER, User-Specified Nominal Capacity [W], 310.22336
! <Environment>,Environment Name,Environment Type, Start Date, End Date, Start DayOfWeek, Duration {#days}, Source:Start DayOfWeek,  Use Daylight Saving, Use Holidays, Apply Weekend Holiday Rule,  Use Rain Values, Use Snow Values
! <Environment:Special Days>, Special Day Name, Special Day Type, Source, Start Date, Duration {#days}
! <Environment:Daylight Saving>, Daylight Saving Indicator, Source, Start Date, End Date
! <Environment:WarmupDays>, NumberofWarmupDays
Environment,4250290 - UK WG data WMO#=03534,WeatherFileRunPeriod,01/01,01/01,Monday,1,Use RunPeriod Specified Day,Yes,Yes,No ,Yes,Yes
Environment:Daylight Saving,No,
Environment:WarmupDays, 10
! <Warmup Convergence Information>,Zone Name,Environment Type/Name,Average Warmup Temperature Difference {deltaC},Std Dev Warmup Temperature Difference {deltaC},Max Temperature Pass/Fail Convergence,Min Temperature Pass/Fail Convergence,Average Warmup Load Difference {W},Std Dev Warmup Load Difference {W},Heating Load Pass/Fail Convergence,Cooling Load Pass/Fail Convergence
 Warmup Convergence Information,STAIRCASE,RunPeriod: 4250290 - UK WG data WMO#=03534,3.2568032059E-002,5.5327716769E-002,Pass,Pass,1.3888888889E-002,0.1170298580,Pass,Pass
 Warmup Convergence Information,DINING,RunPeriod: 4250290 - UK WG data WMO#=03534,4.6254954416E-002,0.1061689247,Pass,Pass,1.3888888889E-002,0.1170298580,Pass,Pass
 Warmup Convergence Information,CELLAR,RunPeriod: 4250290 - UK WG data WMO#=03534,2.6523615266E-002,3.8558507626E-002,Pass,Pass,0.0000000000,0.0000000000,Pass,Pass
 Warmup Convergence Information,TOPHALL,RunPeriod: 4250290 - UK WG data WMO#=03534,2.8979638394E-002,5.9921556061E-002,Pass,Pass,1.3888888889E-002,0.1170298580,Pass,Pass
 Warmup Convergence Information,BEDROOM2,RunPeriod: 4250290 - UK WG data WMO#=03534,3.7751711096E-002,8.9787296317E-002,Pass,Pass,1.3888888889E-002,0.1170298580,Pass,Pass
 Warmup Convergence Information,BATH1,RunPeriod: 4250290 - UK WG data WMO#=03534,9.3416499815E-002,0.2818596583,Pass,Pass,1.3888888889E-002,0.1170298580,Pass,Pass
 Warmup Convergence Information,BEDROOM1,RunPeriod: 4250290 - UK WG data WMO#=03534,3.8648717633E-002,9.5141531358E-002,Pass,Pass,1.3888888889E-002,0.1170298580,Pass,Pass
 Warmup Convergence Information,KITCHEN,RunPeriod: 4250290 - UK WG data WMO#=03534,0.2810381515,0.6940752534,Pass,Pass,3.1296499999E-002,0.1568492066,Pass,Pass
 Warmup Convergence Information,ATTIC,RunPeriod: 4250290 - UK WG data WMO#=03534,4.3887130423E-002,4.4362591388E-002,Pass,Pass,0.0000000000,0.0000000000,Pass,Pass
 Warmup Convergence Information,HALL,RunPeriod: 4250290 - UK WG data WMO#=03534,5.5529080917E-002,0.1331267670,Pass,Pass,1.3888888889E-002,0.1170298580,Pass,Pass
 Warmup Convergence Information,BEDROOM3,RunPeriod: 4250290 - UK WG data WMO#=03534,5.0117701982E-002,9.7520525926E-002,Pass,Pass,1.3888888889E-002,0.1170298580,Pass,Pass
 Warmup Convergence Information,LIVING,RunPeriod: 4250290 - UK WG data WMO#=03534,7.5480949015E-002,0.1172692068,Pass,Pass,1.3888888889E-002,0.1170298580,Pass,Pass
! <Program Control Information:Threads/Parallel Sims>, Threading Supported,Maximum Number of Threads, Env Set Threads (OMP_NUM_THREADS), EP Env Set Threads (EP_OMP_NUM_THREADS), IDF Set Threads, Number of Threads Used (Interior Radiant Exchange), Number Nominal Surfaces, Number Parallel Sims
Program Control:Threads/Parallel Sims, No,1, N/A, N/A, N/A, N/A, N/A, N/A
End of Data
