  Processing Data Dictionary (Energy+.idd) File -- Complete
  Maximum number of Alpha Args=        4500
  Maximum number of Numeric Args=       21040
  Number of Object Definitions=         727
  Number of Section Definitions=           2
  Total Number of Alpha Fields=       18098
  Total Number of Numeric Fields=       39469
  Total Number of Fields=       57567
  Processing Input Data File (in.idf) -- Start
      1 !-Generator IDFEditor 1.34
      2 !-Option OriginalOrderTop UseSpecialFormat
      3 !-NOTE: All comments with '!-' are ignored by the IDFEditor and are generated automatically.
      4 !-      Use '!' comments if they need to be retained when using the IDFEditor.
      5 ! Added thermochromic window to the Small Office model in the DOE Commercial Building Benchmark
      6 !
      7 ! A sample thermochromic window construction is assigned to the window Perimeter_ZN_1_wall_south_Window_1.
      8 !
      9 ! Three time-step report variables were added to help diagnostics
     10 !  Output:Variable,Perimeter_ZN_1_wall_south_Window_1,Window Thermochromic Layer Temperature,timestep; !- Zone Average [C]
     11 !  Output:Variable,Perimeter_ZN_1_wall_south_Window_1,Window Thermochromic Layer Specification Temperature,timestep; !- Zone Average [C]
     12 !  Output:Variable,Perimeter_ZN_1_wall_south_Window_1,Window Transmitted Solar,timestep; !- Zone Average [W]
     13 !
     14 ! The overall window properties (U/SHGC/VT) of the thermochromic window at different specification temperatures are reported in the EIO file.
     15 ! DOE Commercial Building Benchmark
     16 ! Small Office, new construction
     17 ! Benchmark V 1.0_3.0
     18 ! EnergyPlus V 3.0
     19 ! ASHRAE Standards 90.1-2004 and 62-1999
     20 !
     21 ! Description:  Single story, five zone office building.
     22 ! Form:         Area = 511 m2 (5,500 ft2); Number of Stories = 1; Shape = rectangle, Aspect ratio = 1.5
     23 ! Envelope:     Envelope thermal properties vary with climate according to ASHRAE Standard 90.1-2004.
     24 !               Opaque constructions: mass walls; attic roof; slab-on-grade floor
     25 !               Windows: window-to-wall ratio = 19%, equal distribution of punched windows
     26 !               Infiltration = 0.4 cfm/ft2 above grade wall area at 0.3 in wc (75 Pa) adjusted to 0.016 in wc (4 Pa).
     27 !                              25% of full value when ventilation system on.
     28 ! HVAC:         PSZ-AC, gas furnace
     29 !               No economizer
     30 !
     31 ! Int. gains:   lights = 10.76 W/m2 (1.0 W/ft2);
     32 !               elec. plug loads = 6.78 W/m2 (0.63 W/ft2)
     33 !               gas plug load = 0 W/m2 (0 W/ft2)
     34 !               people = 7.53/100 m2 (7.0/1000 ft2)
     35 !
     36 ! Detached Shading:               None
     37 ! Daylight:                       None
     38 ! Natural Ventilation:            None
     39 ! Zonal Equipment:                None
     40 ! Air Primary Loops:              PSZ-AC:1
     41 ! Plant Loops:                    SHWSys1
     42 ! System Equipment Autosize:      No
     43 ! Purchased Cooling:              None
     44 ! Purchased Heating:              None
     45 ! Coils:                          Coil:Cooling:DX:SingleSpeed; Coil:Heating:Gas
     46 ! Pumps:                          None
     47 ! Boilers:                        None
     48 ! Chillers:                       None
     49 !
     50 ! Generated by EPXMLPreproc2 (Windows 32 Version 0.1.2.1)
     51 ! Created on 11/14/2008 02:36:42
     52 !***** NOTICE *****
     53 !***** The Benchmarks were prepared as an account of work sponsored by an *****
     54 !***** agency of the United States government. Neither the United States *****
     55 !***** government nor any agency thereof, nor any of their employees, makes *****
     56 !***** any warranty, express or implied, or assumes any legal liability or *****
     57 !***** responsibility for the accuracy, completeness, or usefulness of any *****
     58 !***** information, apparatus, product, or process disclosed, or represents *****
     59 !***** that its use would not infringe privately owned rights. Reference *****
     60 !***** herein to any specific commercial product, process, or service by *****
     61 !***** trade name, trademark, manufacturer, or otherwise does not necessarily *****
     62 !***** constitute or imply its endorsement, recommendation, or favoring by *****
     63 !***** the United States government or any agency thereof. The views and *****
     64 !***** opinions of authors expressed herein do not necessarily state or *****
     65 !***** reflect those of the United States government or any agency thereof. *****
     66 !***** Access to and use of the Benchmarks imposes the following obligations *****
     67 !***** on the user. The user agrees to credit DOE, NREL, PNNL, and LBNL in *****
     68 !***** any publication(s) that that result from the use of Benchmarks. *****
     69 !***** However, the names of DOE/NREL/PNNL/LBNL may not be used in any *****
     70 !***** advertising or publicity that implies endorsement or promotion of any *****
     71 !***** products, services or commercial entities. *****
     72 ! Reference citation for the Commercial Building Benchmarks:
     73 ! Deru, M.; Griffith, B.; Long, N.; Benne, K.; Torcellini, P; Halverson, M.;
     74 ! Winiarski,  D.; Liu, B.; Crawley, D. (2008). DOE Commercial Building Resarch
     75 ! Benchmarks for Commercial Buildings. Washington, DC: U.S. Department of Energy,
     76 ! Energy Efficiency and Renewable Energy, Office of Building Technologies.
     77 ! Start SimMetaData
     78 ! WeatherFileName=USA_NV_Las.Vegas_TMY2.epw
     79 ! CodeStandard=ASHRAE 90.1-2004
     80 ! RoofConstruction=Attic and Other
     81 ! ExtWallConstruction=Mass
     82 ! End SimMetaData
     83 
     84   Version,8.1;
     85 
     86   Timestep,6;
     87 
     88   SimulationControl,
     89     Yes,                     !- Do Zone Sizing Calculation
     90     Yes,                     !- Do System Sizing Calculation
     91     Yes,                     !- Do Plant Sizing Calculation
     92     No,                      !- Run Simulation for Sizing Periods
     93     Yes;                     !- Run Simulation for Weather File Run Periods
     94 
     95   RunPeriod,
     96     ,                        !- Name
     97     7,                       !- Begin Month
     98     1,                       !- Begin Day of Month
     99     7,                       !- End Month
    100     31,                      !- End Day of Month
    101     Sunday,                  !- Day of Week for Start Day
    102     No,                      !- Use Weather File Holidays and Special Days
    103     No,                      !- Use Weather File Daylight Saving Period
    104     No,                      !- Apply Weekend Holiday Rule
    105     Yes,                     !- Use Weather File Rain Indicators
    106     Yes,                     !- Use Weather File Snow Indicators
    107     1;                       !- Number of Times Runperiod to be Repeated
    108 
    109   SurfaceConvectionAlgorithm:Inside,TARP;
    110 
    111   SurfaceConvectionAlgorithm:Outside,DOE-2;
    112 
    113   HeatBalanceAlgorithm,ConductionTransferFunction,200.0000;
    114 
    115   Sizing:Parameters,
    116     1.2000,                  !- Heating Sizing Factor
    117     1.2000,                  !- Cooling Sizing Factor
    118     ;                        !- Timesteps in Averaging Window
    119 
    120   ConvergenceLimits,
    121     1,                       !- Minimum System Timestep {minutes}
    122     20;                      !- Maximum HVAC Iterations
    123 
    124   ShadowCalculation,
    125     AverageOverDaysInFrequency,  !- Calculation Method
    126     30,                      !- Calculation Frequency
    127     15000;                   !- Maximum Figures in Shadow Overlap Calculations
    128 
    129   GlobalGeometryRules,
    130     UpperLeftCorner,         !- Starting Vertex Position
    131     Counterclockwise,        !- Vertex Entry Direction
    132     Relative,                !- Coordinate System
    133     Relative;                !- Daylighting Reference Point Coordinate System
    134 
    135   Building,
    136     Benchmark Small Office New V1.0_3.0,  !- Name
    137     0.0000,                  !- North Axis {deg}
    138     City,                    !- Terrain
    139     0.0400,                  !- Loads Convergence Tolerance Value
    140     0.2000,                  !- Temperature Convergence Tolerance Value {deltaC}
    141     FullInteriorAndExterior, !- Solar Distribution
    142     25,                      !- Maximum Number of Warmup Days
    143     6;                       !- Minimum Number of Warmup Days
    144 
    145   RunPeriodControl:SpecialDays,
    146     New Years Day,           !- Name
    147     January 1,               !- Start Date
    148     1,                       !- Duration {days}
    149     Holiday;                 !- Special Day Type
    150 
    151   RunPeriodControl:SpecialDays,
    152     Veterans Day,            !- Name
    153     November 11,             !- Start Date
    154     1,                       !- Duration {days}
    155     Holiday;                 !- Special Day Type
    156 
    157   RunPeriodControl:SpecialDays,
    158     Christmas,               !- Name
    159     December 25,             !- Start Date
    160     1,                       !- Duration {days}
    161     Holiday;                 !- Special Day Type
    162 
    163   RunPeriodControl:SpecialDays,
    164     Independence Day,        !- Name
    165     July 4,                  !- Start Date
    166     1,                       !- Duration {days}
    167     Holiday;                 !- Special Day Type
    168 
    169   RunPeriodControl:SpecialDays,
    170     MLK Day,                 !- Name
    171     3rd Monday in January,   !- Start Date
    172     1,                       !- Duration {days}
    173     Holiday;                 !- Special Day Type
    174 
    175   RunPeriodControl:SpecialDays,
    176     Presidents Day,          !- Name
    177     3rd Monday in February,  !- Start Date
    178     1,                       !- Duration {days}
    179     Holiday;                 !- Special Day Type
    180 
    181   RunPeriodControl:SpecialDays,
    182     Memorial Day,            !- Name
    183     Last Monday in May,      !- Start Date
    184     1,                       !- Duration {days}
    185     Holiday;                 !- Special Day Type
    186 
    187   RunPeriodControl:SpecialDays,
    188     Labor Day,               !- Name
    189     1st Monday in September, !- Start Date
    190     1,                       !- Duration {days}
    191     Holiday;                 !- Special Day Type
    192 
    193   RunPeriodControl:SpecialDays,
    194     Columbus Day,            !- Name
    195     2nd Monday in October,   !- Start Date
    196     1,                       !- Duration {days}
    197     Holiday;                 !- Special Day Type
    198 
    199   RunPeriodControl:SpecialDays,
    200     Thanksgiving,            !- Name
    201     4th Thursday in November,!- Start Date
    202     1,                       !- Duration {days}
    203     Holiday;                 !- Special Day Type
    204 
    205 ! Daylight Saving Period in US
    206 
    207   RunPeriodControl:DaylightSavingTime,
    208     2nd Sunday in March,     !- Start Date
    209     1st Sunday in November;  !- End Date
    210 
    211   Site:Location,
    212     LAS_VEGAS_NV_USA TMY2-23169,  !- Name
    213     36.08000,                !- Latitude {deg}
    214     -115.1700,               !- Longitude {deg}
    215     -8.000000,               !- Time Zone {hr}
    216     664.0000;                !- Elevation {m}
    217 
    218   Site:GroundTemperature:BuildingSurface,19.75,19.79,19.80,19.83,19.86,19.86,19.81,19.80,19.83,19.86,19.87,19.84;
    219 
    220 ! Daily Avg, 6.9, 11.3, 11.8, 19.4, 22.7, 30.0, 32.5, 31.5, 27.5, 19.5, 12.4, 8.3
    221 
    222   Site:WaterMainsTemperature,
    223     CORRELATION,             !- Calculation Method
    224     ,                        !- Temperature Schedule Name
    225     19.48,                   !- Annual Average Outdoor Air Temperature {C}
    226     25.60;                   !- Maximum Difference In Monthly Average Outdoor Air Temperatures {deltaC}
    227 
    228 ! LAS_VEGAS_NV_USA Annual Heating 99.6%, MaxDB=-1.7°C
    229 
    230   SizingPeriod:DesignDay,
    231     LAS_VEGAS Ann Htg 99.6% Condns DB,  !- Name
    232     1,                       !- Month
    233     21,                      !- Day of Month
    234     WinterDesignDay,         !- Day Type
    235     -1.7,                    !- Maximum Dry-Bulb Temperature {C}
    236     0.0,                     !- Daily Dry-Bulb Temperature Range {deltaC}
    237     ,                        !- Dry-Bulb Temperature Range Modifier Type
    238     ,                        !- Dry-Bulb Temperature Range Modifier Day Schedule Name
    239     Wetbulb,                 !- Humidity Condition Type
    240     -1.7,                    !- Wetbulb or DewPoint at Maximum Dry-Bulb {C}
    241     ,                        !- Humidity Condition Day Schedule Name
    242     ,                        !- Humidity Ratio at Maximum Dry-Bulb {kgWater/kgDryAir}
    243     ,                        !- Enthalpy at Maximum Dry-Bulb {J/kg}
    244     ,                        !- Daily Wet-Bulb Temperature Range {deltaC}
    245     93598.,                  !- Barometric Pressure {Pa}
    246     3.1,                     !- Wind Speed {m/s}
    247     240,                     !- Wind Direction {deg}
    248     No,                      !- Rain Indicator
    249     No,                      !- Snow Indicator
    250     No,                      !- Daylight Saving Time Indicator
    251     ASHRAEClearSky,          !- Solar Model Indicator
    252     ,                        !- Beam Solar Day Schedule Name
    253     ,                        !- Diffuse Solar Day Schedule Name
    254     ,                        !- ASHRAE Clear Sky Optical Depth for Beam Irradiance (taub) {dimensionless}
    255     ,                        !- ASHRAE Clear Sky Optical Depth for Diffuse Irradiance (taud) {dimensionless}
    256     0.00;                    !- Sky Clearness
    257 
    258 ! LAS_VEGAS_NV_USA Annual Cooling (DB=>MWB) .4%, MaxDB=42.4°C MWB=19.4°C
    259 
    260   SizingPeriod:DesignDay,
    261     LAS_VEGAS Ann Clg .4% Condns DB=>MWB,  !- Name
    262     7,                       !- Month
    263     21,                      !- Day of Month
    264     SummerDesignDay,         !- Day Type
    265     42.4,                    !- Maximum Dry-Bulb Temperature {C}
    266     13.6,                    !- Daily Dry-Bulb Temperature Range {deltaC}
    267     ,                        !- Dry-Bulb Temperature Range Modifier Type
    268     ,                        !- Dry-Bulb Temperature Range Modifier Day Schedule Name
    269     Wetbulb,                 !- Humidity Condition Type
    270     19.4,                    !- Wetbulb or DewPoint at Maximum Dry-Bulb {C}
    271     ,                        !- Humidity Condition Day Schedule Name
    272     ,                        !- Humidity Ratio at Maximum Dry-Bulb {kgWater/kgDryAir}
    273     ,                        !- Enthalpy at Maximum Dry-Bulb {J/kg}
    274     ,                        !- Daily Wet-Bulb Temperature Range {deltaC}
    275     93598.,                  !- Barometric Pressure {Pa}
    276     5.3,                     !- Wind Speed {m/s}
    277     230,                     !- Wind Direction {deg}
    278     No,                      !- Rain Indicator
    279     No,                      !- Snow Indicator
    280     No,                      !- Daylight Saving Time Indicator
    281     ASHRAEClearSky,          !- Solar Model Indicator
    282     ,                        !- Beam Solar Day Schedule Name
    283     ,                        !- Diffuse Solar Day Schedule Name
    284     ,                        !- ASHRAE Clear Sky Optical Depth for Beam Irradiance (taub) {dimensionless}
    285     ,                        !- ASHRAE Clear Sky Optical Depth for Diffuse Irradiance (taud) {dimensionless}
    286     1.00;                    !- Sky Clearness
    287 
    288   ScheduleTypeLimits,
    289     Any Number;              !- Name
    290 
    291   ScheduleTypeLimits,
    292     Fraction,                !- Name
    293     0.0,                     !- Lower Limit Value
    294     1.0,                     !- Upper Limit Value
    295     CONTINUOUS;              !- Numeric Type
    296 
    297   ScheduleTypeLimits,
    298     Temperature,             !- Name
    299     -60,                     !- Lower Limit Value
    300     200,                     !- Upper Limit Value
    301     CONTINUOUS,              !- Numeric Type
    302     Temperature;             !- Unit Type
    303 
    304   ScheduleTypeLimits,
    305     On/Off,                  !- Name
    306     0,                       !- Lower Limit Value
    307     1,                       !- Upper Limit Value
    308     DISCRETE;                !- Numeric Type
    309 
    310   ScheduleTypeLimits,
    311     Control Type,            !- Name
    312     0,                       !- Lower Limit Value
    313     4,                       !- Upper Limit Value
    314     DISCRETE;                !- Numeric Type
    315 
    316   ScheduleTypeLimits,
    317     Humidity,                !- Name
    318     10,                      !- Lower Limit Value
    319     90,                      !- Upper Limit Value
    320     CONTINUOUS;              !- Numeric Type
    321 
    322   ScheduleTypeLimits,
    323     Number;                  !- Name
    324 
    325 ! Schedule set    Schedule_Office_ASHRAE_90.1-1989_TypTstatSetback[]
    326 ! Hours: Weekly: 92, Yearly: 4797
    327 ! Schedule Office Lighting,  ASHRAE 90.1-1989, Section 13 w/addenda
    328 
    329   Schedule:Compact,
    330     BLDG_LIGHT_SCH,          !- Name
    331     Fraction,                !- Schedule Type Limits Name
    332     Through: 12/31,          !- Field 1
    333     For: Weekdays,           !- Field 2
    334     Until: 05:00,0.05,       !- Field 3
    335     Until: 07:00,0.1,        !- Field 5
    336     Until: 08:00,0.3,        !- Field 7
    337     Until: 17:00,0.9,        !- Field 9
    338     Until: 18:00,0.5,        !- Field 11
    339     Until: 20:00,0.3,        !- Field 13
    340     Until: 22:00,0.2,        !- Field 15
    341     Until: 23:00,0.1,        !- Field 17
    342     Until: 24:00,0.05,       !- Field 19
    343     For: SummerDesignDay,    !- Field 21
    344     Until: 24:00,1.0,        !- Field 22
    345     For: Saturday,           !- Field 24
    346     Until: 06:00,0.05,       !- Field 25
    347     Until: 08:00,0.1,        !- Field 27
    348     Until: 12:00,0.3,        !- Field 29
    349     Until: 17:00,0.15,       !- Field 31
    350     Until: 24:00,0.05,       !- Field 33
    351     For: WinterDesignDay,    !- Field 35
    352     Until: 24:00,0.0,        !- Field 36
    353     For: Sunday Holidays AllOtherDays, !- Field 38
    354     Until: 24:00,0.05;       !- Field 39
    355 
    356 ! Schedule Office Receptacle,  ASHRAE 90.1-1989, Section 13
    357 ! MODIFIED for increased off-hours plug loads (to account for more IT equipment)
    358 ! Hours: Weekly: 86.15, Yearly: 4492
    359 
    360   Schedule:Compact,
    361     BLDG_EQUIP_SCH,          !- Name
    362     Fraction,                !- Schedule Type Limits Name
    363     Through: 12/31,          !- Field 1
    364     For: Weekdays,           !- Field 2
    365     Until: 08:00,0.40,       !- Field 3
    366     Until: 12:00,0.90,       !- Field 5
    367     Until: 13:00,0.80,       !- Field 7
    368     Until: 17:00,0.90,       !- Field 9
    369     Until: 18:00,0.50,       !- Field 11
    370     Until: 24:00,0.40,       !- Field 13
    371     For: SummerDesignDay,    !- Field 15
    372     Until: 24:00,1.0,        !- Field 16
    373     For: Saturday,           !- Field 18
    374     Until: 06:00,0.30,       !- Field 19
    375     Until: 08:00,0.4,        !- Field 21
    376     Until: 12:00,0.5,        !- Field 23
    377     Until: 17:00,0.35,       !- Field 25
    378     Until: 24:00,0.30,       !- Field 27
    379     For: WinterDesignDay,    !- Field 29
    380     Until: 24:00,0.0,        !- Field 30
    381     For: Sunday Holidays AllOtherDays, !- Field 32
    382     Until: 24:00,0.30;       !- Field 33
    383 
    384 ! Schedule Office Occupancy,
    385 
    386   Schedule:Compact,
    387     BLDG_OCC_SCH,            !- Name
    388     Fraction,                !- Schedule Type Limits Name
    389     Through: 12/31,          !- Field 1
    390     For: Weekdays,           !- Field 2
    391     Until: 06:00,0.0,        !- Field 3
    392     Until: 07:00,0.1,        !- Field 5
    393     Until: 08:00,0.2,        !- Field 7
    394     Until: 12:00,0.95,       !- Field 9
    395     Until: 13:00,0.5,        !- Field 11
    396     Until: 17:00,0.95,       !- Field 13
    397     Until: 18:00,0.3,        !- Field 15
    398     Until: 20:00,0.1,        !- Field 17
    399     Until: 24:00,0.05,       !- Field 19
    400     For: SummerDesignDay,    !- Field 21
    401     Until: 06:00,0.0,        !- Field 22
    402     Until: 22:00,1.0,        !- Field 24
    403     Until: 24:00,0.05,       !- Field 26
    404     For: Saturday,           !- Field 28
    405     Until: 06:00,0.0,        !- Field 29
    406     Until: 08:00,0.1,        !- Field 31
    407     Until: 12:00,0.3,        !- Field 33
    408     Until: 17:00,0.1,        !- Field 35
    409     Until: 19:00,0.0,        !- Field 37
    410     Until: 24:00,0.0,        !- Field 39
    411     For: WinterDesignDay,    !- Field 41
    412     Until: 24:00,0.0,        !- Field 42
    413     For: Sunday Holidays AllOtherDays, !- Field 44
    414     Until: 06:00,0.0,        !- Field 45
    415     Until: 18:00,0.0,        !- Field 47
    416     Until: 24:00,0.0;        !- Field 49
    417 
    418 ! Schedule Elevator
    419 
    420   Schedule:Compact,
    421     INFIL_QUARTER_ON_SCH,    !- Name
    422     fraction,                !- Schedule Type Limits Name
    423     Through: 12/31,          !- Field 1
    424     For: Weekdays SummerDesignDay, !- Field 2
    425     Until: 06:00,1.0,        !- Field 3
    426     Until: 22:00,0.25,       !- Field 5
    427     Until: 24:00,1.0,        !- Field 7
    428     For: Saturday WinterDesignDay, !- Field 9
    429     Until: 06:00,1.0,        !- Field 10
    430     Until: 18:00,0.25,       !- Field 12
    431     Until: 24:00,1.0,        !- Field 14
    432     For: Sunday Holidays AllOtherDays, !- Field 16
    433     Until: 24:00,1.0;        !- Field 17
    434 
    435 ! Schedule Office Service Water Heating, ASHRAE 90.1-1989, Section 13
    436 
    437   Schedule:Compact,
    438     BLDG_SWH_SCH,            !- Name
    439     Fraction,                !- Schedule Type Limits Name
    440     Through: 12/31,          !- Field 1
    441     For: Weekdays SummerDesignDay, !- Field 2
    442     Until: 05:00,0.05,       !- Field 3
    443     Until: 06:00,0.08,       !- Field 5
    444     Until: 07:00,0.07,       !- Field 7
    445     Until: 08:00,0.19,       !- Field 9
    446     Until: 09:00,0.35,       !- Field 11
    447     Until: 10:00,0.38,       !- Field 13
    448     Until: 11:00,0.39,       !- Field 15
    449     Until: 12:00,0.47,       !- Field 17
    450     Until: 13:00,0.57,       !- Field 19
    451     Until: 14:00,0.54,       !- Field 21
    452     Until: 15:00,0.34,       !- Field 23
    453     Until: 16:00,0.33,       !- Field 25
    454     Until: 17:00,0.44,       !- Field 27
    455     Until: 18:00,0.26,       !- Field 29
    456     Until: 19:00,0.21,       !- Field 31
    457     Until: 20:00,0.15,       !- Field 33
    458     Until: 21:00,0.17,       !- Field 35
    459     Until: 22:00,0.08,       !- Field 37
    460     Until: 24:00,0.05,       !- Field 39
    461     For: Saturday WinterDesignDay, !- Field 41
    462     Until: 05:00,0.05,       !- Field 42
    463     Until: 06:00,0.08,       !- Field 44
    464     Until: 07:00,0.07,       !- Field 46
    465     Until: 08:00,0.11,       !- Field 48
    466     Until: 09:00,0.15,       !- Field 50
    467     Until: 10:00,0.21,       !- Field 52
    468     Until: 11:00,0.19,       !- Field 54
    469     Until: 12:00,0.23,       !- Field 56
    470     Until: 13:00,0.20,       !- Field 58
    471     Until: 14:00,0.19,       !- Field 60
    472     Until: 15:00,0.15,       !- Field 62
    473     Until: 16:00,0.13,       !- Field 64
    474     Until: 17:00,0.14,       !- Field 66
    475     Until: 21:00,0.07,       !- Field 68
    476     Until: 22:00,0.09,       !- Field 70
    477     Until: 24:00,0.05,       !- Field 72
    478     For: Sunday Holidays AllOtherDays, !- Field 74
    479     Until: 05:00,0.04,       !- Field 75
    480     Until: 06:00,0.07,       !- Field 77
    481     Until: 11:00,0.04,       !- Field 79
    482     Until: 13:00,0.06,       !- Field 81
    483     Until: 14:00,0.09,       !- Field 83
    484     Until: 15:00,0.06,       !- Field 85
    485     Until: 21:00,0.04,       !- Field 87
    486     Until: 22:00,0.07,       !- Field 89
    487     Until: 24:00,0.04;       !- Field 91
    488 
    489   Schedule:Compact,
    490     ALWAYS_ON,               !- Name
    491     Fraction,                !- Schedule Type Limits Name
    492     Through: 12/31,          !- Field 1
    493     For: AllDays,            !- Field 2
    494     Until: 24:00,1.0;        !- Field 3
    495 
    496 ! Schedule Office HVAC Systems, ASHRAE 90.1-1989, Section 13
    497 !  Equivalent Full-Load Hours: Weekdays 16, Saturday 12, Sunday/Holidays 0
    498 
    499   Schedule:Compact,
    500     HVACOperationSchd,       !- Name
    501     on/off,                  !- Schedule Type Limits Name
    502     Through: 12/31,          !- Field 1
    503     For: Weekdays SummerDesignDay, !- Field 2
    504     Until: 06:00,0.0,        !- Field 3
    505     Until: 22:00,1.0,        !- Field 5
    506     Until: 24:00,0.0,        !- Field 7
    507     For: Saturday WinterDesignDay, !- Field 9
    508     Until: 06:00,0.0,        !- Field 10
    509     Until: 18:00,1.0,        !- Field 12
    510     Until: 24:00,0.0,        !- Field 14
    511     For: Sunday Holidays AllOtherDays, !- Field 16
    512     Until: 24:00,0.0;        !- Field 17
    513 
    514   Schedule:Compact,
    515     PlantOnSched,            !- Name
    516     On/Off,                  !- Schedule Type Limits Name
    517     Through: 12/31,          !- Field 1
    518     For: AllDays,            !- Field 2
    519     Until: 24:00,1.0;        !- Field 3
    520 
    521   Schedule:Compact,
    522     HTGSETP_SCH,             !- Name
    523     Temperature,             !- Schedule Type Limits Name
    524     Through: 12/31,          !- Field 1
    525     For: Weekdays WinterDesignDay, !- Field 2
    526     Until: 05:00,15.6,       !- Field 3
    527     Until: 19:00,21.0,       !- Field 5
    528     Until: 24:00,13.,        !- Field 7
    529     For SummerDesignDay,     !- Field 9
    530     Until: 24:00,15.6,       !- Field 10
    531     For: Saturday,           !- Field 12
    532     Until: 06:00,15.6,       !- Field 13
    533     Until: 17:00,21.0,       !- Field 15
    534     Until: 24:00,15.6,       !- Field 17
    535     For: Sunday Holidays AllOtherDays, !- Field 19
    536     Until: 24:00,15.6;       !- Field 20
    537 
    538   Schedule:Compact,
    539     CLGSETP_SCH,             !- Name
    540     Temperature,             !- Schedule Type Limits Name
    541     Through: 12/31,          !- Field 1
    542     For: Weekdays SummerDesignDay, !- Field 2
    543     Until: 06:00,30.0,       !- Field 3
    544     Until: 22:00,24.0,       !- Field 5
    545     Until: 24:00,30.0,       !- Field 7
    546     For: Saturday,           !- Field 9
    547     Until: 06:00,30.0,       !- Field 10
    548     Until: 18:00,24.0,       !- Field 12
    549     Until: 24:00,30.0,       !- Field 14
    550     For WinterDesignDay,     !- Field 16
    551     Until: 24:00,30.0,       !- Field 17
    552     For: Sunday Holidays AllOtherDays, !- Field 19
    553     Until: 24:00,30.0;       !- Field 20
    554 
    555   Schedule:Compact,
    556     MinOA_Sched,             !- Name
    557     fraction,                !- Schedule Type Limits Name
    558     Through: 12/31,          !- Field 1
    559     For: AllDays,            !- Field 2
    560     Until: 24:00,1.0;        !- Field 3
    561 
    562   Schedule:Compact,
    563     Dual Zone Control Type Sched,  !- Name
    564     Control Type,            !- Schedule Type Limits Name
    565     Through: 12/31,          !- Field 1
    566     For: AllDays,            !- Field 2
    567     Until: 24:00,4;          !- Field 3
    568 
    569   Schedule:Compact,
    570     ACTIVITY_SCH,            !- Name
    571     Any Number,              !- Schedule Type Limits Name
    572     Through: 12/31,          !- Field 1
    573     For: AllDays,            !- Field 2
    574     Until: 24:00,120.;       !- Field 3
    575 
    576   Schedule:Compact,
    577     WORK_EFF_SCH,            !- Name
    578     Fraction,                !- Schedule Type Limits Name
    579     Through: 12/31,          !- Field 1
    580     For: AllDays,            !- Field 2
    581     Until: 24:00,0.0;        !- Field 3
    582 
    583   Schedule:Compact,
    584     AIR_VELO_SCH,            !- Name
    585     Any Number,              !- Schedule Type Limits Name
    586     Through: 12/31,          !- Field 1
    587     For: AllDays,            !- Field 2
    588     Until: 24:00,0.2;        !- Field 3
    589 
    590   Schedule:Compact,
    591     CLOTHING_SCH,            !- Name
    592     Any Number,              !- Schedule Type Limits Name
    593     Through: 04/30,          !- Field 1
    594     For: AllDays,            !- Field 2
    595     Until: 24:00,1.0,        !- Field 3
    596     Through: 09/30,          !- Field 5
    597     For: AllDays,            !- Field 6
    598     Until: 24:00,0.5,        !- Field 7
    599     Through: 12/31,          !- Field 9
    600     For: AllDays,            !- Field 10
    601     Until: 24:00,1.0;        !- Field 11
    602 
    603   WindowMaterial:Glazing,
    604     Theoretical Glass [68],  !- Name
    605     SpectralAverage,         !- Optical Data Type
    606     ,                        !- Window Glass Spectral Data Set Name
    607     0.0030,                  !- Thickness {m}
    608     0.2442,                  !- Solar Transmittance at Normal Incidence
    609     0.7058,                  !- Front Side Solar Reflectance at Normal Incidence
    610     0.7058,                  !- Back Side Solar Reflectance at Normal Incidence
    611     0.3192,                  !- Visible Transmittance at Normal Incidence
    612     0.6308,                  !- Front Side Visible Reflectance at Normal Incidence
    613     0.6308,                  !- Back Side Visible Reflectance at Normal Incidence
    614     0.0000,                  !- Infrared Transmittance at Normal Incidence
    615     0.9000,                  !- Front Side Infrared Hemispherical Emissivity
    616     0.9000,                  !- Back Side Infrared Hemispherical Emissivity
    617     0.0199,                  !- Conductivity {W/m-K}
    618     1.0000,                  !- Dirt Correction Factor for Solar and Visible Transmittance
    619     No;                      !- Solar Diffusing
    620 
    621   WindowMaterial:Glazing,
    622     Theoretical Glass [63],  !- Name
    623     SpectralAverage,         !- Optical Data Type
    624     ,                        !- Window Glass Spectral Data Set Name
    625     0.0030,                  !- Thickness {m}
    626     0.3461,                  !- Solar Transmittance at Normal Incidence
    627     0.6039,                  !- Front Side Solar Reflectance at Normal Incidence
    628     0.6039,                  !- Back Side Solar Reflectance at Normal Incidence
    629     0.4573,                  !- Visible Transmittance at Normal Incidence
    630     0.4927,                  !- Front Side Visible Reflectance at Normal Incidence
    631     0.4927,                  !- Back Side Visible Reflectance at Normal Incidence
    632     0.0000,                  !- Infrared Transmittance at Normal Incidence
    633     0.9990,                  !- Front Side Infrared Hemispherical Emissivity
    634     0.9990,                  !- Back Side Infrared Hemispherical Emissivity
    635     299.3830,                !- Conductivity {W/m-K}
    636     1.0000,                  !- Dirt Correction Factor for Solar and Visible Transmittance
    637     No;                      !- Solar Diffusing
    638 
    639   Material,
    640     Wood Shingles,           !- Name
    641     VeryRough,               !- Roughness
    642     0.0178,                  !- Thickness {m}
    643     0.1150,                  !- Conductivity {W/m-K}
    644     513.0000,                !- Density {kg/m3}
    645     1255.0000,               !- Specific Heat {J/kg-K}
    646     0.9000,                  !- Thermal Absorptance
    647     0.7800,                  !- Solar Absorptance
    648     0.7800;                  !- Visible Absorptance
    649 
    650   Material,
    651     1IN Wood Decking,        !- Name
    652     MediumSmooth,            !- Roughness
    653     0.0254,                  !- Thickness {m}
    654     0.1211,                  !- Conductivity {W/m-K}
    655     593.0000,                !- Density {kg/m3}
    656     2510.0000,               !- Specific Heat {J/kg-K}
    657     0.9000,                  !- Thermal Absorptance
    658     0.7800,                  !- Solar Absorptance
    659     0.7800;                  !- Visible Absorptance
    660 
    661   Material,
    662     Roof Insulation [2],     !- Name
    663     MediumRough,             !- Roughness
    664     0.2216,                  !- Thickness {m}
    665     0.0490,                  !- Conductivity {W/m-K}
    666     265.0000,                !- Density {kg/m3}
    667     836.8000,                !- Specific Heat {J/kg-K}
    668     0.9000,                  !- Thermal Absorptance
    669     0.7000,                  !- Solar Absorptance
    670     0.7000;                  !- Visible Absorptance
    671 
    672   Material,
    673     1/2IN Gypsum,            !- Name
    674     Smooth,                  !- Roughness
    675     0.0127,                  !- Thickness {m}
    676     0.1600,                  !- Conductivity {W/m-K}
    677     784.9000,                !- Density {kg/m3}
    678     830.0000,                !- Specific Heat {J/kg-K}
    679     0.9000,                  !- Thermal Absorptance
    680     0.9200,                  !- Solar Absorptance
    681     0.9200;                  !- Visible Absorptance
    682 
    683   Material,
    684     GP01 1/2 GYPSUM,         !- Name
    685     Smooth,                  !- Roughness
    686     0.0127,                  !- Thickness {m}
    687     0.1600,                  !- Conductivity {W/m-K}
    688     800.0000,                !- Density {kg/m3}
    689     1090.0000,               !- Specific Heat {J/kg-K}
    690     0.9000,                  !- Thermal Absorptance
    691     0.7000,                  !- Solar Absorptance
    692     0.5000;                  !- Visible Absorptance
    693 
    694   Material,
    695     1IN Stucco,              !- Name
    696     Smooth,                  !- Roughness
    697     0.0253,                  !- Thickness {m}
    698     0.6918,                  !- Conductivity {W/m-K}
    699     1858.0000,               !- Density {kg/m3}
    700     837.0000,                !- Specific Heat {J/kg-K}
    701     0.9000,                  !- Thermal Absorptance
    702     0.9200,                  !- Solar Absorptance
    703     0.9200;                  !- Visible Absorptance
    704 
    705   Material,
    706     8IN Concrete HW,         !- Name
    707     MediumRough,             !- Roughness
    708     0.2033,                  !- Thickness {m}
    709     1.7296,                  !- Conductivity {W/m-K}
    710     2243.0000,               !- Density {kg/m3}
    711     837.0000,                !- Specific Heat {J/kg-K}
    712     0.9000,                  !- Thermal Absorptance
    713     0.6500,                  !- Solar Absorptance
    714     0.6500;                  !- Visible Absorptance
    715 
    716   Material,
    717     Wall Insulation [4],     !- Name
    718     MediumRough,             !- Roughness
    719     0.0339,                  !- Thickness {m}
    720     0.0432,                  !- Conductivity {W/m-K}
    721     91.0000,                 !- Density {kg/m3}
    722     837.0000,                !- Specific Heat {J/kg-K}
    723     0.9000,                  !- Thermal Absorptance
    724     0.5000,                  !- Solar Absorptance
    725     0.5000;                  !- Visible Absorptance
    726 
    727   Material,
    728     MAT-CC05 4 HW CONCRETE,  !- Name
    729     Rough,                   !- Roughness
    730     0.1016,                  !- Thickness {m}
    731     1.3110,                  !- Conductivity {W/m-K}
    732     2240.0000,               !- Density {kg/m3}
    733     836.8000,                !- Specific Heat {J/kg-K}
    734     0.9000,                  !- Thermal Absorptance
    735     0.7000,                  !- Solar Absorptance
    736     0.7000;                  !- Visible Absorptance
    737 
    738   Material:NoMass,
    739     CP02 CARPET PAD,         !- Name
    740     VeryRough,               !- Roughness
    741     0.2165,                  !- Thermal Resistance {m2-K/W}
    742     0.9000,                  !- Thermal Absorptance
    743     0.7000,                  !- Solar Absorptance
    744     0.8000;                  !- Visible Absorptance
    745 
    746   Material,
    747     Floor Insulation [1],    !- Name
    748     MediumRough,             !- Roughness
    749     0.0464,                  !- Thickness {m}
    750     0.0450,                  !- Conductivity {W/m-K}
    751     265.0000,                !- Density {kg/m3}
    752     836.8000,                !- Specific Heat {J/kg-K}
    753     0.9000,                  !- Thermal Absorptance
    754     0.7000,                  !- Solar Absorptance
    755     0.7000;                  !- Visible Absorptance
    756 
    757   Material,
    758     MAT-CC05 8 HW CONCRETE,  !- Name
    759     Rough,                   !- Roughness
    760     0.2032,                  !- Thickness {m}
    761     1.3110,                  !- Conductivity {W/m-K}
    762     2240.0000,               !- Density {kg/m3}
    763     836.8000,                !- Specific Heat {J/kg-K}
    764     0.9000,                  !- Thermal Absorptance
    765     0.7000,                  !- Solar Absorptance
    766     0.7000;                  !- Visible Absorptance
    767 
    768   Material,
    769     1/2IN Gypsum Top,        !- Name
    770     Smooth,                  !- Roughness
    771     0.0127,                  !- Thickness {m}
    772     0.1600,                  !- Conductivity {W/m-K}
    773     784.9000,                !- Density {kg/m3}
    774     830.0000,                !- Specific Heat {J/kg-K}
    775     0.9000,                  !- Thermal Absorptance
    776     0.9200,                  !- Solar Absorptance
    777     0.9200;                  !- Visible Absorptance
    778 
    779   Material,
    780     AtticFloor Insulation,   !- Name
    781     MediumRough,             !- Roughness
    782     0.2379,                  !- Thickness {m}
    783     0.0490,                  !- Conductivity {W/m-K}
    784     265.0000,                !- Density {kg/m3}
    785     836.8000,                !- Specific Heat {J/kg-K}
    786     0.9000,                  !- Thermal Absorptance
    787     0.7000,                  !- Solar Absorptance
    788     0.7000;                  !- Visible Absorptance
    789 
    790   Material,
    791     1/2IN Gypsum Bottom,     !- Name
    792     Smooth,                  !- Roughness
    793     0.0127,                  !- Thickness {m}
    794     0.1600,                  !- Conductivity {W/m-K}
    795     784.9000,                !- Density {kg/m3}
    796     830.0000,                !- Specific Heat {J/kg-K}
    797     0.9000,                  !- Thermal Absorptance
    798     0.9200,                  !- Solar Absorptance
    799     0.9200;                  !- Visible Absorptance
    800 
    801   Material,
    802     Roof Membrane,           !- Name
    803     VeryRough,               !- Roughness
    804     0.0095,                  !- Thickness {m}
    805     0.1600,                  !- Conductivity {W/m-K}
    806     1121.2900,               !- Density {kg/m3}
    807     1460.0000,               !- Specific Heat {J/kg-K}
    808     0.9000,                  !- Thermal Absorptance
    809     0.7000,                  !- Solar Absorptance
    810     0.7000;                  !- Visible Absorptance
    811 
    812   Material,
    813     Metal Decking,           !- Name
    814     MediumSmooth,            !- Roughness
    815     0.0015,                  !- Thickness {m}
    816     45.0060,                 !- Conductivity {W/m-K}
    817     7680.0000,               !- Density {kg/m3}
    818     418.4000,                !- Specific Heat {J/kg-K}
    819     0.9000,                  !- Thermal Absorptance
    820     0.7000,                  !- Solar Absorptance
    821     0.3000;                  !- Visible Absorptance
    822 
    823   Material,
    824     METAL Door Medium 18Ga_1,!- Name
    825     Smooth,                  !- Roughness
    826     0.0013,                  !- Thickness {m}
    827     45.3149,                 !- Conductivity {W/m-K}
    828     7833.0300,               !- Density {kg/m3}
    829     502.0800,                !- Specific Heat {J/kg-K}
    830     0.8000,                  !- Thermal Absorptance
    831     0.5000,                  !- Solar Absorptance
    832     0.5000;                  !- Visible Absorptance
    833 
    834   Material:NoMass,
    835     AIR,                     !- Name
    836     Smooth,                  !- Roughness
    837     0.2515,                  !- Thermal Resistance {m2-K/W}
    838     0.8000,                  !- Thermal Absorptance
    839     0.5000,                  !- Solar Absorptance
    840     0.5000;                  !- Visible Absorptance
    841 
    842   Material,
    843     METAL Door Medium 18Ga_2,!- Name
    844     Smooth,                  !- Roughness
    845     0.0013,                  !- Thickness {m}
    846     45.3149,                 !- Conductivity {W/m-K}
    847     7833.0300,               !- Density {kg/m3}
    848     502.0800,                !- Specific Heat {J/kg-K}
    849     0.8000,                  !- Thermal Absorptance
    850     0.5000,                  !- Solar Absorptance
    851     0.5000;                  !- Visible Absorptance
    852 
    853   Material:NoMass,
    854     AIR [1],                 !- Name
    855     Smooth,                  !- Roughness
    856     0.1214,                  !- Thermal Resistance {m2-K/W}
    857     0.8000,                  !- Thermal Absorptance
    858     0.5000,                  !- Solar Absorptance
    859     0.5000;                  !- Visible Absorptance
    860 
    861   Material,
    862     Std Wood 6inch,          !- Name
    863     MediumSmooth,            !- Roughness
    864     0.15,                    !- Thickness {m}
    865     0.12,                    !- Conductivity {W/m-K}
    866     540.0000,                !- Density {kg/m3}
    867     1210,                    !- Specific Heat {J/kg-K}
    868     0.9000000,               !- Thermal Absorptance
    869     0.7000000,               !- Solar Absorptance
    870     0.7000000;               !- Visible Absorptance
    871 
    872   Material,
    873     Std 1.5  MW CONCRETE,    !- Name
    874     Rough,                   !- Roughness
    875     0.038,                   !- Thickness {m}
    876     0.858,                   !- Conductivity {W/m-K}
    877     1968,                    !- Density {kg/m3}
    878     836.8,                   !- Specific Heat {J/kg-K}
    879     0.9,                     !- Thermal Absorptance
    880     0.7,                     !- Solar Absorptance
    881     0.7;                     !- Visible Absorptance
    882 
    883   Material,
    884     Std AC02,                !- Name
    885     MediumSmooth,            !- Roughness
    886     1.2700000E-02,           !- Thickness {m}
    887     5.7000000E-02,           !- Conductivity {W/m-K}
    888     288.0000,                !- Density {kg/m3}
    889     1339.000,                !- Specific Heat {J/kg-K}
    890     0.9000000,               !- Thermal Absorptance
    891     0.7000000,               !- Solar Absorptance
    892     0.2000000;               !- Visible Absorptance
    893 
    894   Material:NoMass,
    895     Std CP02 CARPET PAD,     !- Name
    896     VeryRough,               !- Roughness
    897     0.21648,                 !- Thermal Resistance {m2-K/W}
    898     0.9,                     !- Thermal Absorptance
    899     0.7,                     !- Solar Absorptance
    900     0.8;                     !- Visible Absorptance
    901 
    902   Material,
    903     Std MAT-CC05 4  MW CONCRETE,  !- Name
    904     Rough,                   !- Roughness
    905     0.1000,                  !- Thickness {m}
    906     0.858,                   !- Conductivity {W/m-K}
    907     1968,                    !- Density {kg/m3}
    908     836.8,                   !- Specific Heat {J/kg-K}
    909     0.9,                     !- Thermal Absorptance
    910     0.7,                     !- Solar Absorptance
    911     0.2;                     !- Visible Absorptance
    912 
    913   Material,
    914     Std Very High Reflectivity Surface,  !- Name
    915     Smooth,                  !- Roughness
    916     0.0005,                  !- Thickness {m}
    917     237,                     !- Conductivity {W/m-K}
    918     2702,                    !- Density {kg/m3}
    919     903,                     !- Specific Heat {J/kg-K}
    920     0.90,                    !- Thermal Absorptance
    921     0.05,                    !- Solar Absorptance
    922     0.05;                    !- Visible Absorptance
    923 
    924   WindowMaterial:Glazing,
    925     Std Clear Acrylic Plastic,  !- Name
    926     SpectralAverage,         !- Optical Data Type
    927     ,                        !- Window Glass Spectral Data Set Name
    928     0.003,                   !- Thickness {m}
    929     0.92,                    !- Solar Transmittance at Normal Incidence
    930     0.05,                    !- Front Side Solar Reflectance at Normal Incidence
    931     0.05,                    !- Back Side Solar Reflectance at Normal Incidence
    932     0.92,                    !- Visible Transmittance at Normal Incidence
    933     0.05,                    !- Front Side Visible Reflectance at Normal Incidence
    934     0.05,                    !- Back Side Visible Reflectance at Normal Incidence
    935     0.00,                    !- Infrared Transmittance at Normal Incidence
    936     0.90,                    !- Front Side Infrared Hemispherical Emissivity
    937     0.90,                    !- Back Side Infrared Hemispherical Emissivity
    938     0.90;                    !- Conductivity {W/m-K}
    939 
    940   WindowMaterial:Glazing,
    941     Std Diffusing Acrylic Plastic,  !- Name
    942     SpectralAverage,         !- Optical Data Type
    943     ,                        !- Window Glass Spectral Data Set Name
    944     0.0022,                  !- Thickness {m}
    945     0.90,                    !- Solar Transmittance at Normal Incidence
    946     0.08,                    !- Front Side Solar Reflectance at Normal Incidence
    947     0.08,                    !- Back Side Solar Reflectance at Normal Incidence
    948     0.90,                    !- Visible Transmittance at Normal Incidence
    949     0.08,                    !- Front Side Visible Reflectance at Normal Incidence
    950     0.08,                    !- Back Side Visible Reflectance at Normal Incidence
    951     0.00,                    !- Infrared Transmittance at Normal Incidence
    952     0.90,                    !- Front Side Infrared Hemispherical Emissivity
    953     0.90,                    !- Back Side Infrared Hemispherical Emissivity
    954     0.90;                    !- Conductivity {W/m-K}
    955 
    956   Material,
    957     Std PW05,                !- Name
    958     MediumSmooth,            !- Roughness
    959     1.9099999E-02,           !- Thickness {m}
    960     0.1150000,               !- Conductivity {W/m-K}
    961     545.0000,                !- Density {kg/m3}
    962     1213.000,                !- Specific Heat {J/kg-K}
    963     0.9000000,               !- Thermal Absorptance
    964     0.7800000,               !- Solar Absorptance
    965     0.7800000;               !- Visible Absorptance
    966 
    967   Material,
    968     Std Steel_Brown_Regular, !- Name
    969     Smooth,                  !- Roughness
    970     1.5000000E-03,           !- Thickness {m}
    971     44.96960,                !- Conductivity {W/m-K}
    972     7689.000,                !- Density {kg/m3}
    973     418.0000,                !- Specific Heat {J/kg-K}
    974     0.9000000,               !- Thermal Absorptance
    975     0.9200000,               !- Solar Absorptance
    976     0.92000000;              !- Visible Absorptance
    977 
    978   Material,
    979     Std Steel_Brown_Cool,    !- Name
    980     Smooth,                  !- Roughness
    981     1.5000000E-03,           !- Thickness {m}
    982     44.96960,                !- Conductivity {W/m-K}
    983     7689.000,                !- Density {kg/m3}
    984     418.0000,                !- Specific Heat {J/kg-K}
    985     0.9000000,               !- Thermal Absorptance
    986     0.7300000,               !- Solar Absorptance
    987     0.73000000;              !- Visible Absorptance
    988 
    989   Material,
    990     PW05_Plywood3/4_in,      !- Name
    991     MediumSmooth,            !- Roughness
    992     0.0191,                  !- Thickness {m}
    993     0.1150,                  !- Conductivity {W/m-K}
    994     545.0000,                !- Density {kg/m3}
    995     1213.0000,               !- Specific Heat {J/kg-K}
    996     0.9000,                  !- Thermal Absorptance
    997     0.7000,                  !- Solar Absorptance
    998     0.7800;                  !- Visible Absorptance
    999 
   1000   Material:NoMass,
   1001     MAT-AIR-WALL,            !- Name
   1002     Rough,                   !- Roughness
   1003     0.2079491,               !- Thermal Resistance {m2-K/W}
   1004     0.9,                     !- Thermal Absorptance
   1005     0.7;                     !- Solar Absorptance
   1006 
   1007   Material:NoMass,
   1008     Std Opaque Door panel_con,  !- Name
   1009     MediumRough,             !- Roughness
   1010     0.12327,                 !- Thermal Resistance {m2-K/W}
   1011     0.9,                     !- Thermal Absorptance
   1012     0.7,                     !- Solar Absorptance
   1013     0.7;                     !- Visible Absorptance
   1014 
   1015   Material:NoMass,
   1016     Std Opaque Door panel_semi,  !- Name
   1017     MediumRough,             !- Roughness
   1018     0.12327,                 !- Thermal Resistance {m2-K/W}
   1019     0.9,                     !- Thermal Absorptance
   1020     0.7,                     !- Solar Absorptance
   1021     0.7;                     !- Visible Absorptance
   1022 
   1023   Material:NoMass,
   1024     Std Overhead Door Panel, !- Name
   1025     MediumRough,             !- Roughness
   1026     0.255345,                !- Thermal Resistance {m2-K/W}
   1027     0.9,                     !- Thermal Absorptance
   1028     0.7,                     !- Solar Absorptance
   1029     0.7;                     !- Visible Absorptance
   1030 
   1031   Construction,
   1032     InteriorFurnishings,     !- Name
   1033     Std Wood 6inch;          !- Outside Layer
   1034 
   1035   ComponentCost:LineItem,
   1036     Interior Furnishings,    !- Name
   1037     ,                        !- Type
   1038     Construction,            !- Line Item Type
   1039     InteriorFurnishings,     !- Item Name
   1040     ,                        !- Object End-Use Key
   1041     ,                        !- Cost per Each {$}
   1042     1;                       !- Cost per Area {$/m2}
   1043 
   1044   Construction,
   1045     INT-FLOOR-TOPSIDE,       !- Name
   1046     Std MAT-CC05 4  MW CONCRETE,  !- Outside Layer
   1047     Std CP02 CARPET PAD;     !- Layer 2
   1048 
   1049   Construction,
   1050     INT-FLOOR-UNDERSIDE,     !- Name
   1051     Std CP02 CARPET PAD,     !- Outside Layer
   1052     Std MAT-CC05 4  MW CONCRETE;  !- Layer 2
   1053 
   1054   ComponentCost:LineItem,
   1055     Interior Floor,          !- Name
   1056     ,                        !- Type
   1057     Construction,            !- Line Item Type
   1058     INT-FLOOR-UNDERSIDE,     !- Item Name
   1059     ,                        !- Object End-Use Key
   1060     ,                        !- Cost per Each {$}
   1061     15;                      !- Cost per Area {$/m2}
   1062 
   1063   Construction,
   1064     INT-FLOOR-SLAB,          !- Name
   1065     Std MAT-CC05 4  MW CONCRETE;  !- Outside Layer
   1066 
   1067   ComponentCost:LineItem,
   1068     Interior Floor Slab,     !- Name
   1069     ,                        !- Type
   1070     Construction,            !- Line Item Type
   1071     INT-FLOOR-SLAB,          !- Item Name
   1072     ,                        !- Object End-Use Key
   1073     ,                        !- Cost per Each {$}
   1074     35;                      !- Cost per Area {$/m2}
   1075 
   1076   Construction,
   1077     DropCeiling,             !- Name
   1078     Std AC02;                !- Outside Layer
   1079 
   1080   ComponentCost:LineItem,
   1081     Drop Ceiling,            !- Name
   1082     ,                        !- Type
   1083     Construction,            !- Line Item Type
   1084     DropCeiling,             !- Item Name
   1085     ,                        !- Object End-Use Key
   1086     ,                        !- Cost per Each {$}
   1087     10;                      !- Cost per Area {$/m2}
   1088 
   1089   Construction,
   1090     INT-CEILING_SIMPLE,      !- Name
   1091     PW05_Plywood3/4_in;      !- Outside Layer
   1092 
   1093   Construction,
   1094     Raised-Floor-TopSide,    !- Name
   1095     Std 1.5  MW CONCRETE,    !- Outside Layer
   1096     Std CP02 CARPET PAD;     !- Layer 2
   1097 
   1098   Construction,
   1099     Raised-Floor-UnderSide,  !- Name
   1100     Std CP02 CARPET PAD,     !- Outside Layer
   1101     Std 1.5  MW CONCRETE;    !- Layer 2
   1102 
   1103   Construction,
   1104     TDD_Pipe,                !- Name
   1105     Std Very High Reflectivity Surface;  !- Outside Layer
   1106 
   1107   Construction,
   1108     TDD_Dome,                !- Name
   1109     Std Clear Acrylic Plastic;  !- Outside Layer
   1110 
   1111   Construction,
   1112     TDD_Diffuser,            !- Name
   1113     Std Diffusing Acrylic Plastic;  !- Outside Layer
   1114 
   1115   Construction,
   1116     Sloped_Metal_Roof,       !- Name
   1117     Std Steel_Brown_Regular, !- Outside Layer
   1118     Std PW05;                !- Layer 2
   1119 
   1120   ComponentCost:LineItem,
   1121     Sloped Metal Roof,       !- Name
   1122     ,                        !- Type
   1123     Construction,            !- Line Item Type
   1124     Sloped_Metal_Roof,       !- Item Name
   1125     ,                        !- Object End-Use Key
   1126     ,                        !- Cost per Each {$}
   1127     1;                       !- Cost per Area {$/m2}
   1128 
   1129   Construction,
   1130     Gable_Wall,              !- Name
   1131     Std PW05;                !- Outside Layer
   1132 
   1133   ComponentCost:LineItem,
   1134     Gable Wall,              !- Name
   1135     ,                        !- Type
   1136     Construction,            !- Line Item Type
   1137     Gable_Wall,              !- Item Name
   1138     ,                        !- Object End-Use Key
   1139     ,                        !- Cost per Each {$}
   1140     1;                       !- Cost per Area {$/m2}
   1141 
   1142   Construction,
   1143     AIR-WALL,                !- Name
   1144     MAT-AIR-WALL;            !- Outside Layer
   1145 
   1146   ComponentCost:LineItem,
   1147     Air Wall,                !- Name
   1148     ,                        !- Type
   1149     Construction,            !- Line Item Type
   1150     AIR-WALL,                !- Item Name
   1151     ,                        !- Object End-Use Key
   1152     ,                        !- Cost per Each {$}
   1153     1;                       !- Cost per Area {$/m2}
   1154 
   1155   Construction,
   1156     Std Swinging Door_con,   !- Name
   1157     Std Opaque Door panel_con;  !- Outside Layer
   1158 
   1159   ComponentCost:LineItem,
   1160     Swinging Door Conditioned,  !- Name
   1161     ,                        !- Type
   1162     Construction,            !- Line Item Type
   1163     Std Swinging Door_con,   !- Item Name
   1164     ,                        !- Object End-Use Key
   1165     ,                        !- Cost per Each {$}
   1166     1;                       !- Cost per Area {$/m2}
   1167 
   1168   Construction,
   1169     Std Swinging Door_semi,  !- Name
   1170     Std Opaque Door panel_semi;  !- Outside Layer
   1171 
   1172   ComponentCost:LineItem,
   1173     Swinging Door Semi-conditioned,  !- Name
   1174     ,                        !- Type
   1175     Construction,            !- Line Item Type
   1176     Std Swinging Door_semi,  !- Item Name
   1177     ,                        !- Object End-Use Key
   1178     ,                        !- Cost per Each {$}
   1179     1;                       !- Cost per Area {$/m2}
   1180 
   1181   Construction,
   1182     Std Overhead Door,       !- Name
   1183     Std Overhead Door Panel; !- Outside Layer
   1184 
   1185   ComponentCost:LineItem,
   1186     Overhead Door,           !- Name
   1187     ,                        !- Type
   1188     Construction,            !- Line Item Type
   1189     Std Overhead Door,       !- Item Name
   1190     ,                        !- Object End-Use Key
   1191     ,                        !- Cost per Each {$}
   1192     1;                       !- Cost per Area {$/m2}
   1193 
   1194   Construction,
   1195     window_south,            !- Name
   1196     Theoretical Glass [68];  !- Outside Layer
   1197 
   1198   ComponentCost:LineItem,
   1199     south:window_south,      !- Name
   1200     ,                        !- Type
   1201     Construction,            !- Line Item Type
   1202     window_south,            !- Item Name
   1203     ,                        !- Object End-Use Key
   1204     ,                        !- Cost per Each {$}
   1205     243.6230;                !- Cost per Area {$/m2}
   1206 
   1207   Construction,
   1208     window_east,             !- Name
   1209     Theoretical Glass [68];  !- Outside Layer
   1210 
   1211   ComponentCost:LineItem,
   1212     east:window_east,        !- Name
   1213     ,                        !- Type
   1214     Construction,            !- Line Item Type
   1215     window_east,             !- Item Name
   1216     ,                        !- Object End-Use Key
   1217     ,                        !- Cost per Each {$}
   1218     243.6230;                !- Cost per Area {$/m2}
   1219 
   1220   Construction,
   1221     window_north,            !- Name
   1222     Theoretical Glass [68];  !- Outside Layer
   1223 
   1224   ComponentCost:LineItem,
   1225     north:window_north,      !- Name
   1226     ,                        !- Type
   1227     Construction,            !- Line Item Type
   1228     window_north,            !- Item Name
   1229     ,                        !- Object End-Use Key
   1230     ,                        !- Cost per Each {$}
   1231     243.6230;                !- Cost per Area {$/m2}
   1232 
   1233   Construction,
   1234     window_west,             !- Name
   1235     Theoretical Glass [68];  !- Outside Layer
   1236 
   1237   ComponentCost:LineItem,
   1238     west:window_west,        !- Name
   1239     ,                        !- Type
   1240     Construction,            !- Line Item Type
   1241     window_west,             !- Item Name
   1242     ,                        !- Object End-Use Key
   1243     ,                        !- Cost per Each {$}
   1244     243.6230;                !- Cost per Area {$/m2}
   1245 
   1246   Construction,
   1247     window_SkylightConst,    !- Name
   1248     Theoretical Glass [63];  !- Outside Layer
   1249 
   1250   ComponentCost:LineItem,
   1251     SkylightConst:window_SkylightConst,  !- Name
   1252     ,                        !- Type
   1253     Construction,            !- Line Item Type
   1254     window_SkylightConst,    !- Item Name
   1255     ,                        !- Object End-Use Key
   1256     ,                        !- Cost per Each {$}
   1257     205.7480;                !- Cost per Area {$/m2}
   1258 
   1259   Construction,
   1260     roofs,                   !- Name
   1261     Wood Shingles,           !- Outside Layer
   1262     1IN Wood Decking,        !- Layer 2
   1263     Roof Insulation [2],     !- Layer 3
   1264     1/2IN Gypsum;            !- Layer 4
   1265 
   1266   ComponentCost:LineItem,
   1267     roofs:roofs,             !- Name
   1268     ,                        !- Type
   1269     Construction,            !- Line Item Type
   1270     roofs,                   !- Item Name
   1271     ,                        !- Object End-Use Key
   1272     ,                        !- Cost per Each {$}
   1273     14.9259;                 !- Cost per Area {$/m2}
   1274 
   1275   Construction,
   1276     int-walls,               !- Name
   1277     GP01 1/2 GYPSUM,         !- Outside Layer
   1278     GP01 1/2 GYPSUM;         !- Layer 2
   1279 
   1280   ComponentCost:LineItem,
   1281     int-walls:int-walls,     !- Name
   1282     ,                        !- Type
   1283     Construction,            !- Line Item Type
   1284     int-walls,               !- Item Name
   1285     ,                        !- Object End-Use Key
   1286     ,                        !- Cost per Each {$}
   1287     1.0000;                  !- Cost per Area {$/m2}
   1288 
   1289   Construction,
   1290     ext-walls,               !- Name
   1291     1IN Stucco,              !- Outside Layer
   1292     8IN Concrete HW,         !- Layer 2
   1293     Wall Insulation [4],     !- Layer 3
   1294     1/2IN Gypsum;            !- Layer 4
   1295 
   1296   ComponentCost:LineItem,
   1297     ext-walls:ext-walls,     !- Name
   1298     ,                        !- Type
   1299     Construction,            !- Line Item Type
   1300     ext-walls,               !- Item Name
   1301     ,                        !- Object End-Use Key
   1302     ,                        !- Cost per Each {$}
   1303     41.1600;                 !- Cost per Area {$/m2}
   1304 
   1305   Construction,
   1306     ext-slab,                !- Name
   1307     MAT-CC05 4 HW CONCRETE,  !- Outside Layer
   1308     CP02 CARPET PAD;         !- Layer 2
   1309 
   1310   ComponentCost:LineItem,
   1311     ext-slab:ext-slab,       !- Name
   1312     ,                        !- Type
   1313     Construction,            !- Line Item Type
   1314     ext-slab,                !- Item Name
   1315     ,                        !- Object End-Use Key
   1316     ,                        !- Cost per Each {$}
   1317     24.8600;                 !- Cost per Area {$/m2}
   1318 
   1319   Construction,
   1320     exposed-floor,           !- Name
   1321     Floor Insulation [1],    !- Outside Layer
   1322     MAT-CC05 8 HW CONCRETE,  !- Layer 2
   1323     CP02 CARPET PAD;         !- Layer 3
   1324 
   1325   ComponentCost:LineItem,
   1326     exposed-floor:exposed-floor,  !- Name
   1327     ,                        !- Type
   1328     Construction,            !- Line Item Type
   1329     exposed-floor,           !- Item Name
   1330     ,                        !- Object End-Use Key
   1331     ,                        !- Cost per Each {$}
   1332     32.9966;                 !- Cost per Area {$/m2}
   1333 
   1334   Construction,
   1335     attic-floor,             !- Name
   1336     1/2IN Gypsum Top,        !- Outside Layer
   1337     AtticFloor Insulation,   !- Layer 2
   1338     1/2IN Gypsum Bottom;     !- Layer 3
   1339 
   1340   ComponentCost:LineItem,
   1341     attic-floor:attic-floor, !- Name
   1342     ,                        !- Type
   1343     Construction,            !- Line Item Type
   1344     attic-floor,             !- Item Name
   1345     ,                        !- Object End-Use Key
   1346     ,                        !- Cost per Each {$}
   1347     15.0182;                 !- Cost per Area {$/m2}
   1348 
   1349   Construction,
   1350     attic-roof,              !- Name
   1351     Roof Membrane,           !- Outside Layer
   1352     Metal Decking;           !- Layer 2
   1353 
   1354   ComponentCost:LineItem,
   1355     attic-roof:attic-roof,   !- Name
   1356     ,                        !- Type
   1357     Construction,            !- Line Item Type
   1358     attic-roof,              !- Item Name
   1359     ,                        !- Object End-Use Key
   1360     ,                        !- Cost per Each {$}
   1361     34.3904;                 !- Cost per Area {$/m2}
   1362 
   1363   Construction,
   1364     door,                    !- Name
   1365     METAL Door Medium 18Ga_1,!- Outside Layer
   1366     AIR,                     !- Layer 2
   1367     METAL Door Medium 18Ga_2;!- Layer 3
   1368 
   1369   ComponentCost:LineItem,
   1370     door:door,               !- Name
   1371     ,                        !- Type
   1372     Construction,            !- Line Item Type
   1373     door,                    !- Item Name
   1374     ,                        !- Object End-Use Key
   1375     ,                        !- Cost per Each {$}
   1376     1.0000;                  !- Cost per Area {$/m2}
   1377 
   1378   Construction,
   1379     non-swinging-door,       !- Name
   1380     METAL Door Medium 18Ga_1,!- Outside Layer
   1381     AIR [1],                 !- Layer 2
   1382     METAL Door Medium 18Ga_2;!- Layer 3
   1383 
   1384   ComponentCost:LineItem,
   1385     non-swinging-door:non-swinging-door,  !- Name
   1386     ,                        !- Type
   1387     Construction,            !- Line Item Type
   1388     non-swinging-door,       !- Item Name
   1389     ,                        !- Object End-Use Key
   1390     ,                        !- Cost per Each {$}
   1391     1.0000;                  !- Cost per Area {$/m2}
   1392 
   1393   Zone,
   1394     Core_ZN,                 !- Name
   1395     0.0000,                  !- Direction of Relative North {deg}
   1396     0.0000,                  !- X Origin {m}
   1397     0.0000,                  !- Y Origin {m}
   1398     0.0000,                  !- Z Origin {m}
   1399     1,                       !- Type
   1400     1.0000,                  !- Multiplier
   1401     -9999.0000,              !- Ceiling Height {m}
   1402     456.4551,                !- Volume {m3}
   1403     autocalculate,           !- Floor Area {m2}
   1404     ,                        !- Zone Inside Convection Algorithm
   1405     ,                        !- Zone Outside Convection Algorithm
   1406     Yes;                     !- Part of Total Floor Area
   1407 
   1408   BuildingSurface:Detailed,
   1409     Core_ZN_floor,           !- Name
   1410     Floor,                   !- Surface Type
   1411     ext-slab,                !- Construction Name
   1412     Core_ZN,                 !- Zone Name
   1413     Ground,                  !- Outside Boundary Condition
   1414     ,                        !- Outside Boundary Condition Object
   1415     NoSun,                   !- Sun Exposure
   1416     NoWind,                  !- Wind Exposure
   1417     AutoCalculate,           !- View Factor to Ground
   1418     4,                       !- Number of Vertices
   1419     5.0000,13.4600,0.0000,  !- X,Y,Z ==> Vertex 1 {m}
   1420     22.6900,13.4600,0.0000,  !- X,Y,Z ==> Vertex 2 {m}
   1421     22.6900,5.0000,0.0000,  !- X,Y,Z ==> Vertex 3 {m}
   1422     5.0000,5.0000,0.0000;  !- X,Y,Z ==> Vertex 4 {m}
   1423 
   1424   BuildingSurface:Detailed,
   1425     Core_ZN_wall_south,      !- Name
   1426     Wall,                    !- Surface Type
   1427     int-walls,               !- Construction Name
   1428     Core_ZN,                 !- Zone Name
   1429     Surface,                 !- Outside Boundary Condition
   1430     Perimeter_ZN_1_wall_north,  !- Outside Boundary Condition Object
   1431     NoSun,                   !- Sun Exposure
   1432     NoWind,                  !- Wind Exposure
   1433     AutoCalculate,           !- View Factor to Ground
   1434     4,                       !- Number of Vertices
   1435     5.0000,5.0000,3.0500,  !- X,Y,Z ==> Vertex 1 {m}
   1436     5.0000,5.0000,0.0000,  !- X,Y,Z ==> Vertex 2 {m}
   1437     22.6900,5.0000,0.0000,  !- X,Y,Z ==> Vertex 3 {m}
   1438     22.6900,5.0000,3.0500;  !- X,Y,Z ==> Vertex 4 {m}
   1439 
   1440   BuildingSurface:Detailed,
   1441     Core_ZN_wall_east,       !- Name
   1442     Wall,                    !- Surface Type
   1443     int-walls,               !- Construction Name
   1444     Core_ZN,                 !- Zone Name
   1445     Surface,                 !- Outside Boundary Condition
   1446     Perimeter_ZN_2_wall_west,!- Outside Boundary Condition Object
   1447     NoSun,                   !- Sun Exposure
   1448     NoWind,                  !- Wind Exposure
   1449     AutoCalculate,           !- View Factor to Ground
   1450     4,                       !- Number of Vertices
   1451     22.6900,5.0000,3.0500,  !- X,Y,Z ==> Vertex 1 {m}
   1452     22.6900,5.0000,0.0000,  !- X,Y,Z ==> Vertex 2 {m}
   1453     22.6900,13.4600,0.0000,  !- X,Y,Z ==> Vertex 3 {m}
   1454     22.6900,13.4600,3.0500;  !- X,Y,Z ==> Vertex 4 {m}
   1455 
   1456   BuildingSurface:Detailed,
   1457     Core_ZN_wall_north,      !- Name
   1458     Wall,                    !- Surface Type
   1459     int-walls,               !- Construction Name
   1460     Core_ZN,                 !- Zone Name
   1461     Surface,                 !- Outside Boundary Condition
   1462     Perimeter_ZN_3_wall_south,  !- Outside Boundary Condition Object
   1463     NoSun,                   !- Sun Exposure
   1464     NoWind,                  !- Wind Exposure
   1465     AutoCalculate,           !- View Factor to Ground
   1466     4,                       !- Number of Vertices
   1467     22.6900,13.4600,3.0500,  !- X,Y,Z ==> Vertex 1 {m}
   1468     22.6900,13.4600,0.0000,  !- X,Y,Z ==> Vertex 2 {m}
   1469     5.0000,13.4600,0.0000,  !- X,Y,Z ==> Vertex 3 {m}
   1470     5.0000,13.4600,3.0500;  !- X,Y,Z ==> Vertex 4 {m}
   1471 
   1472   BuildingSurface:Detailed,
   1473     Core_ZN_ceiling,         !- Name
   1474     Ceiling,                 !- Surface Type
   1475     INT-FLOOR-UNDERSIDE,     !- Construction Name
   1476     Core_ZN,                 !- Zone Name
   1477     Surface,                 !- Outside Boundary Condition
   1478     Attic_floor_core,        !- Outside Boundary Condition Object
   1479     NoSun,                   !- Sun Exposure
   1480     NoWind,                  !- Wind Exposure
   1481     AutoCalculate,           !- View Factor to Ground
   1482     4,                       !- Number of Vertices
   1483     22.6900,13.4600,3.0500,  !- X,Y,Z ==> Vertex 1 {m}
   1484     5.0000,13.4600,3.0500,  !- X,Y,Z ==> Vertex 2 {m}
   1485     5.0000,5.0000,3.0500,  !- X,Y,Z ==> Vertex 3 {m}
   1486     22.6900,5.0000,3.0500;  !- X,Y,Z ==> Vertex 4 {m}
   1487 
   1488   BuildingSurface:Detailed,
   1489     Core_ZN_wall_west,       !- Name
   1490     Wall,                    !- Surface Type
   1491     int-walls,               !- Construction Name
   1492     Core_ZN,                 !- Zone Name
   1493     Surface,                 !- Outside Boundary Condition
   1494     Perimeter_ZN_4_wall_east,!- Outside Boundary Condition Object
   1495     NoSun,                   !- Sun Exposure
   1496     NoWind,                  !- Wind Exposure
   1497     AutoCalculate,           !- View Factor to Ground
   1498     4,                       !- Number of Vertices
   1499     5.0000,13.4600,3.0500,  !- X,Y,Z ==> Vertex 1 {m}
   1500     5.0000,13.4600,0.0000,  !- X,Y,Z ==> Vertex 2 {m}
   1501     5.0000,5.0000,0.0000,  !- X,Y,Z ==> Vertex 3 {m}
   1502     5.0000,5.0000,3.0500;  !- X,Y,Z ==> Vertex 4 {m}
   1503 
   1504   InternalMass,
   1505     Core_ZN_InternalMass_1,  !- Name
   1506     InteriorFurnishings,     !- Construction Name
   1507     Core_ZN,                 !- Zone Name
   1508     299.3148;                !- Surface Area {m2}
   1509 
   1510   People,
   1511     Core_ZN,                 !- Name
   1512     Core_ZN,                 !- Zone or ZoneList Name
   1513     BLDG_OCC_SCH,            !- Number of People Schedule Name
   1514     People,                  !- Number of People Calculation Method
   1515     8.0516,                  !- Number of People
   1516     ,                        !- People per Zone Floor Area {person/m2}
   1517     ,                        !- Zone Floor Area per Person {m2/person}
   1518     0.3000,                  !- Fraction Radiant
   1519     AUTOCALCULATE,           !- Sensible Heat Fraction
   1520     ACTIVITY_SCH,            !- Activity Level Schedule Name
   1521     3.82E-8,                 !- Carbon Dioxide Generation Rate {m3/s-W}
   1522     No,                      !- Enable ASHRAE 55 Comfort Warnings
   1523     ZoneAveraged,            !- Mean Radiant Temperature Calculation Type
   1524     ,                        !- Surface Name/Angle Factor List Name
   1525     WORK_EFF_SCH,            !- Work Efficiency Schedule Name
   1526     ClothingInsulationSchedule,  !- Clothing Insulation Calculation Method
   1527     ,                        !- Clothing Insulation Calculation Method Schedule Name
   1528     CLOTHING_SCH,            !- Clothing Insulation Schedule Name
   1529     AIR_VELO_SCH,            !- Air Velocity Schedule Name
   1530     FANGER;                  !- Thermal Comfort Model 1 Type
   1531 
   1532   ComponentCost:LineItem,
   1533     People:Core_ZN,          !- Name
   1534     ,                        !- Type
   1535     General,                 !- Line Item Type
   1536     Core_ZN,                 !- Item Name
   1537     ,                        !- Object End-Use Key
   1538     1.0000,                  !- Cost per Each {$}
   1539     ,                        !- Cost per Area {$/m2}
   1540     ,                        !- Cost per Unit of Output Capacity {$/kW}
   1541     ,                        !- Cost per Unit of Output Capacity per COP {$/kW}
   1542     ,                        !- Cost per Volume {$/m3}
   1543     ,                        !- Cost per Volume Rate {$/(m3/s)}
   1544     ,                        !- Cost per Energy per Temperature Difference {$/(W/K)}
   1545     8.0516;                  !- Quantity {dimensionless}
   1546 
   1547   Lights,
   1548     Core_ZN_Lights,          !- Name
   1549     Core_ZN,                 !- Zone or ZoneList Name
   1550     BLDG_LIGHT_SCH,          !- Schedule Name
   1551     LightingLevel,           !- Design Level Calculation Method
   1552     1610.3136,               !- Lighting Level {W}
   1553     ,                        !- Watts per Zone Floor Area {W/m2}
   1554     ,                        !- Watts per Person {W/person}
   1555     0.0000,                  !- Return Air Fraction
   1556     0.7000,                  !- Fraction Radiant
   1557     0.2000,                  !- Fraction Visible
   1558     1.0000,                  !- Fraction Replaceable
   1559     General,                 !- End-Use Subcategory
   1560     No;                      !- Return Air Fraction Calculated from Plenum Temperature
   1561 
   1562   ComponentCost:LineItem,
   1563     LIGHTING EQUIP:Core_ZN,  !- Name
   1564     ,                        !- Type
   1565     Lights,                  !- Line Item Type
   1566     Core_ZN,                 !- Item Name
   1567     ,                        !- Object End-Use Key
   1568     ,                        !- Cost per Each {$}
   1569     ,                        !- Cost per Area {$/m2}
   1570     1.0000;                  !- Cost per Unit of Output Capacity {$/kW}
   1571 
   1572   ElectricEquipment,
   1573     Core_ZN_MiscPlug_Equip,  !- Name
   1574     Core_ZN,                 !- Zone or ZoneList Name
   1575     BLDG_EQUIP_SCH,          !- Schedule Name
   1576     EquipmentLevel,          !- Design Level Calculation Method
   1577     1207.7352,               !- Design Level {W}
   1578     ,                        !- Watts per Zone Floor Area {W/m2}
   1579     ,                        !- Watts per Person {W/person}
   1580     0.0000,                  !- Fraction Latent
   1581     0.5000,                  !- Fraction Radiant
   1582     0.0000,                  !- Fraction Lost
   1583     MiscPlug;                !- End-Use Subcategory
   1584 
   1585   ComponentCost:LineItem,
   1586     ElectricEquipment:Core_ZN:MiscPlug,  !- Name
   1587     ,                        !- Type
   1588     General,                 !- Line Item Type
   1589     Core_ZN,                 !- Item Name
   1590     ,                        !- Object End-Use Key
   1591     1.0000,                  !- Cost per Each {$}
   1592     ,                        !- Cost per Area {$/m2}
   1593     ,                        !- Cost per Unit of Output Capacity {$/kW}
   1594     ,                        !- Cost per Unit of Output Capacity per COP {$/kW}
   1595     ,                        !- Cost per Volume {$/m3}
   1596     ,                        !- Cost per Volume Rate {$/(m3/s)}
   1597     ,                        !- Cost per Energy per Temperature Difference {$/(W/K)}
   1598     1.2077;                  !- Quantity {dimensionless}
   1599 
   1600 !***** Space Conditioning For Zone: Core_ZN *****
   1601 
   1602   Sizing:Zone,
   1603     Core_ZN,                 !- Zone or ZoneList Name
[...]
  14655     0.585,0.040,0.042,0.042,
  14656     0.590,0.039,0.042,0.042,
  14657     0.595,0.038,0.042,0.042,
  14658     0.600,0.037,0.041,0.041,
  14659     0.605,0.037,0.041,0.041,
  14660     0.610,0.038,0.042,0.042,
  14661     0.615,0.039,0.042,0.042,
  14662     0.620,0.040,0.042,0.042,
  14663     0.625,0.041,0.042,0.042,
  14664     0.630,0.042,0.042,0.042,
  14665     0.635,0.044,0.042,0.042,
  14666     0.640,0.047,0.042,0.042,
  14667     0.645,0.050,0.042,0.042,
  14668     0.650,0.054,0.042,0.042,
  14669     0.655,0.059,0.042,0.042,
  14670     0.660,0.064,0.043,0.043,
  14671     0.665,0.069,0.043,0.043,
  14672     0.670,0.075,0.043,0.043,
  14673     0.675,0.081,0.043,0.043,
  14674     0.680,0.089,0.044,0.044,
  14675     0.685,0.096,0.044,0.044,
  14676     0.690,0.106,0.044,0.044,
  14677     0.695,0.116,0.045,0.045,
  14678     0.700,0.129,0.045,0.045,
  14679     0.705,0.143,0.046,0.046,
  14680     0.710,0.159,0.046,0.046,
  14681     0.715,0.176,0.047,0.047,
  14682     0.720,0.195,0.048,0.048,
  14683     0.725,0.215,0.049,0.049,
  14684     0.730,0.236,0.049,0.049,
  14685     0.735,0.257,0.050,0.050,
  14686     0.740,0.280,0.051,0.051,
  14687     0.745,0.303,0.052,0.052,
  14688     0.750,0.324,0.053,0.053,
  14689     0.755,0.345,0.054,0.054,
  14690     0.760,0.367,0.055,0.055,
  14691     0.765,0.386,0.055,0.055,
  14692     0.770,0.405,0.056,0.056,
  14693     0.775,0.421,0.057,0.057,
  14694     0.780,0.437,0.057,0.057,
  14695     0.785,0.454,0.058,0.058,
  14696     0.790,0.469,0.059,0.059,
  14697     0.795,0.483,0.059,0.059,
  14698     0.800,0.496,0.060,0.060,
  14699     0.805,0.507,0.060,0.060,
  14700     0.810,0.516,0.061,0.061,
  14701     0.815,0.524,0.061,0.061,
  14702     0.820,0.532,0.061,0.061,
  14703     0.825,0.535,0.061,0.061,
  14704     0.830,0.538,0.062,0.062,
  14705     0.835,0.537,0.061,0.061,
  14706     0.840,0.536,0.061,0.061,
  14707     0.845,0.533,0.061,0.061,
  14708     0.850,0.535,0.061,0.061,
  14709     0.855,0.537,0.061,0.061,
  14710     0.860,0.537,0.061,0.061,
  14711     0.865,0.534,0.061,0.061,
  14712     0.870,0.535,0.061,0.061,
  14713     0.875,0.535,0.061,0.061,
  14714     0.880,0.528,0.061,0.061,
  14715     0.885,0.528,0.061,0.061,
  14716     0.890,0.524,0.061,0.061,
  14717     0.895,0.518,0.061,0.061,
  14718     0.900,0.509,0.060,0.060,
  14719     0.905,0.498,0.060,0.060,
  14720     0.910,0.487,0.059,0.059,
  14721     0.915,0.476,0.059,0.059,
  14722     0.920,0.466,0.059,0.059,
  14723     0.925,0.458,0.058,0.058,
  14724     0.930,0.448,0.058,0.058,
  14725     0.935,0.439,0.058,0.058,
  14726     0.940,0.427,0.057,0.057,
  14727     0.945,0.420,0.057,0.057,
  14728     0.950,0.408,0.056,0.056,
  14729     0.955,0.399,0.056,0.056,
  14730     0.960,0.392,0.056,0.056,
  14731     0.965,0.383,0.055,0.055,
  14732     0.970,0.377,0.055,0.055,
  14733     0.975,0.372,0.055,0.055,
  14734     0.980,0.370,0.055,0.055,
  14735     0.985,0.366,0.055,0.055,
  14736     0.990,0.364,0.055,0.055,
  14737     0.995,0.358,0.054,0.054,
  14738     1.000,0.357,0.054,0.054,
  14739     1.005,0.355,0.054,0.054,
  14740     1.010,0.353,0.054,0.054,
  14741     1.015,0.352,0.054,0.054,
  14742     1.020,0.351,0.054,0.054,
  14743     1.025,0.350,0.054,0.054,
  14744     1.030,0.350,0.054,0.054,
  14745     1.035,0.351,0.054,0.054,
  14746     1.040,0.352,0.054,0.054,
  14747     1.045,0.353,0.054,0.054,
  14748     1.050,0.355,0.054,0.054,
  14749     1.055,0.357,0.054,0.054,
  14750     1.060,0.359,0.054,0.054,
  14751     1.065,0.366,0.055,0.055,
  14752     1.070,0.370,0.055,0.055,
  14753     1.075,0.374,0.055,0.055,
  14754     1.080,0.383,0.055,0.055,
  14755     1.085,0.392,0.056,0.056,
  14756     1.090,0.399,0.056,0.056,
  14757     1.095,0.408,0.056,0.056,
  14758     1.100,0.420,0.057,0.057,
  14759     1.105,0.432,0.057,0.057,
  14760     1.110,0.464,0.059,0.059,
  14761     1.115,0.482,0.059,0.059,
  14762     1.120,0.514,0.061,0.061,
  14763     1.125,0.526,0.061,0.061,
  14764     1.130,0.544,0.062,0.062,
  14765     1.135,0.556,0.062,0.062,
  14766     1.140,0.574,0.063,0.063,
  14767     1.145,0.586,0.063,0.063,
  14768     1.150,0.605,0.064,0.064,
  14769     1.155,0.614,0.065,0.065,
  14770     1.160,0.625,0.065,0.065,
  14771     1.165,0.629,0.065,0.065,
  14772     1.170,0.627,0.065,0.065,
  14773     1.175,0.624,0.065,0.065,
  14774     1.180,0.618,0.065,0.065,
  14775     1.185,0.611,0.064,0.064,
  14776     1.190,0.601,0.064,0.064,
  14777     1.195,0.600,0.064,0.064,
  14778     1.200,0.605,0.064,0.064,
  14779     1.205,0.611,0.064,0.064,
  14780     1.210,0.619,0.065,0.065,
  14781     1.215,0.625,0.065,0.065,
  14782     1.220,0.634,0.065,0.065,
  14783     1.225,0.640,0.066,0.066,
  14784     1.230,0.644,0.066,0.066,
  14785     1.235,0.647,0.066,0.066,
  14786     1.240,0.650,0.066,0.066,
  14787     1.245,0.653,0.066,0.066,
  14788     1.250,0.656,0.066,0.066,
  14789     1.255,0.658,0.066,0.066,
  14790     1.260,0.661,0.066,0.066,
  14791     1.265,0.662,0.066,0.066,
  14792     1.270,0.667,0.067,0.067,
  14793     1.275,0.668,0.067,0.067,
  14794     1.280,0.671,0.067,0.067,
  14795     1.285,0.675,0.067,0.067,
  14796     1.290,0.678,0.067,0.067,
  14797     1.295,0.679,0.067,0.067,
  14798     1.300,0.682,0.067,0.067,
  14799     1.305,0.684,0.067,0.067,
  14800     1.310,0.687,0.067,0.067,
  14801     1.315,0.689,0.068,0.068,
  14802     1.320,0.692,0.068,0.068,
  14803     1.325,0.693,0.068,0.068,
  14804     1.330,0.695,0.068,0.068,
  14805     1.335,0.697,0.068,0.068,
  14806     1.340,0.698,0.068,0.068,
  14807     1.345,0.698,0.068,0.068,
  14808     1.350,0.698,0.068,0.068,
  14809     1.355,0.695,0.068,0.068,
  14810     1.360,0.692,0.068,0.068,
  14811     1.365,0.692,0.068,0.068,
  14812     1.370,0.687,0.067,0.067,
  14813     1.375,0.682,0.067,0.067,
  14814     1.380,0.676,0.067,0.067,
  14815     1.385,0.678,0.067,0.067,
  14816     1.390,0.676,0.067,0.067,
  14817     1.395,0.675,0.067,0.067,
  14818     1.400,0.676,0.067,0.067,
  14819     1.405,0.675,0.067,0.067,
  14820     1.410,0.671,0.067,0.067,
  14821     1.415,0.670,0.067,0.067,
  14822     1.420,0.673,0.067,0.067,
  14823     1.425,0.671,0.067,0.067,
  14824     1.430,0.668,0.067,0.067,
  14825     1.435,0.670,0.067,0.067,
  14826     1.440,0.670,0.067,0.067,
  14827     1.445,0.668,0.067,0.067,
  14828     1.450,0.670,0.067,0.067,
  14829     1.455,0.670,0.067,0.067,
  14830     1.460,0.673,0.067,0.067,
  14831     1.465,0.676,0.067,0.067,
  14832     1.470,0.681,0.067,0.067,
  14833     1.475,0.684,0.067,0.067,
  14834     1.480,0.689,0.068,0.068,
  14835     1.485,0.690,0.068,0.068,
  14836     1.490,0.695,0.068,0.068,
  14837     1.495,0.698,0.068,0.068,
  14838     1.500,0.703,0.068,0.068,
  14839     1.505,0.706,0.068,0.068,
  14840     1.510,0.711,0.068,0.068,
  14841     1.515,0.714,0.069,0.069,
  14842     1.520,0.718,0.069,0.069,
  14843     1.525,0.719,0.069,0.069,
  14844     1.530,0.724,0.069,0.069,
  14845     1.535,0.724,0.069,0.069,
  14846     1.540,0.728,0.069,0.069,
  14847     1.545,0.728,0.069,0.069,
  14848     1.550,0.728,0.069,0.069,
  14849     1.555,0.728,0.069,0.069,
  14850     1.560,0.728,0.069,0.069,
  14851     1.565,0.728,0.069,0.069,
  14852     1.570,0.728,0.069,0.069,
  14853     1.575,0.728,0.069,0.069,
  14854     1.580,0.729,0.069,0.069,
  14855     1.585,0.731,0.069,0.069,
  14856     1.590,0.733,0.069,0.069,
  14857     1.595,0.735,0.069,0.069,
  14858     1.600,0.736,0.069,0.069,
  14859     1.605,0.738,0.070,0.070,
  14860     1.610,0.740,0.070,0.070,
  14861     1.615,0.741,0.070,0.070,
  14862     1.620,0.741,0.070,0.070,
  14863     1.625,0.741,0.070,0.070,
  14864     1.630,0.741,0.070,0.070,
  14865     1.635,0.741,0.070,0.070,
  14866     1.640,0.741,0.070,0.070,
  14867     1.645,0.743,0.070,0.070,
  14868     1.650,0.741,0.070,0.070,
  14869     1.655,0.740,0.070,0.070,
  14870     1.660,0.736,0.069,0.069,
  14871     1.665,0.735,0.069,0.069,
  14872     1.670,0.724,0.069,0.069,
  14873     1.675,0.716,0.069,0.069,
  14874     1.680,0.698,0.068,0.068,
  14875     1.685,0.673,0.067,0.067,
  14876     1.690,0.608,0.064,0.064,
  14877     1.695,0.574,0.063,0.063,
  14878     1.700,0.521,0.061,0.061,
  14879     1.705,0.493,0.060,0.060,
  14880     1.710,0.499,0.060,0.060,
  14881     1.715,0.507,0.060,0.060,
  14882     1.720,0.512,0.060,0.060,
  14883     1.725,0.526,0.061,0.061,
  14884     1.730,0.548,0.062,0.062,
  14885     1.735,0.546,0.062,0.062,
  14886     1.740,0.533,0.061,0.061,
  14887     1.745,0.527,0.061,0.061,
  14888     1.750,0.522,0.061,0.061,
  14889     1.755,0.530,0.061,0.061,
  14890     1.760,0.552,0.062,0.062,
  14891     1.765,0.568,0.063,0.063,
  14892     1.770,0.589,0.064,0.064,
  14893     1.775,0.600,0.064,0.064,
  14894     1.780,0.619,0.065,0.065,
  14895     1.785,0.625,0.065,0.065,
  14896     1.790,0.630,0.065,0.065,
  14897     1.795,0.632,0.065,0.065,
  14898     1.800,0.635,0.065,0.065,
  14899     1.805,0.637,0.065,0.065,
  14900     1.810,0.638,0.066,0.066,
  14901     1.815,0.638,0.066,0.066,
  14902     1.820,0.638,0.066,0.066,
  14903     1.825,0.640,0.066,0.066,
  14904     1.830,0.646,0.066,0.066,
  14905     1.835,0.649,0.066,0.066,
  14906     1.840,0.656,0.066,0.066,
  14907     1.845,0.658,0.066,0.066,
  14908     1.850,0.667,0.067,0.067,
  14909     1.855,0.673,0.067,0.067,
  14910     1.860,0.681,0.067,0.067,
  14911     1.865,0.681,0.067,0.067,
  14912     1.870,0.684,0.067,0.067,
  14913     1.875,0.687,0.067,0.067,
  14914     1.880,0.687,0.067,0.067,
  14915     1.885,0.685,0.067,0.067,
  14916     1.890,0.685,0.067,0.067,
  14917     1.895,0.685,0.067,0.067,
  14918     1.900,0.689,0.068,0.068,
  14919     1.905,0.682,0.067,0.067,
  14920     1.910,0.682,0.067,0.067,
  14921     1.915,0.679,0.067,0.067,
  14922     1.920,0.681,0.067,0.067,
  14923     1.925,0.678,0.067,0.067,
  14924     1.930,0.679,0.067,0.067,
  14925     1.935,0.679,0.067,0.067,
  14926     1.940,0.679,0.067,0.067,
  14927     1.945,0.681,0.067,0.067,
  14928     1.950,0.684,0.067,0.067,
  14929     1.955,0.685,0.067,0.067,
  14930     1.960,0.687,0.067,0.067,
  14931     1.965,0.685,0.067,0.067,
  14932     1.970,0.685,0.067,0.067,
  14933     1.975,0.687,0.067,0.067,
  14934     1.980,0.684,0.067,0.067,
  14935     1.985,0.684,0.067,0.067,
  14936     1.990,0.682,0.067,0.067,
  14937     1.995,0.681,0.067,0.067,
  14938     2.000,0.678,0.067,0.067,
  14939     2.005,0.673,0.067,0.067,
  14940     2.010,0.662,0.066,0.066,
  14941     2.015,0.655,0.066,0.066,
  14942     2.020,0.646,0.066,0.066,
  14943     2.025,0.638,0.066,0.066,
  14944     2.030,0.630,0.065,0.065,
  14945     2.035,0.622,0.065,0.065,
  14946     2.040,0.614,0.065,0.065,
  14947     2.045,0.608,0.064,0.064,
  14948     2.050,0.598,0.064,0.064,
  14949     2.055,0.593,0.064,0.064,
  14950     2.060,0.582,0.063,0.063,
  14951     2.065,0.575,0.063,0.063,
  14952     2.070,0.569,0.063,0.063,
  14953     2.075,0.568,0.063,0.063,
  14954     2.080,0.565,0.063,0.063,
  14955     2.085,0.565,0.063,0.063,
  14956     2.090,0.566,0.063,0.063,
  14957     2.095,0.566,0.063,0.063,
  14958     2.100,0.570,0.063,0.063,
  14959     2.105,0.571,0.063,0.063,
  14960     2.110,0.575,0.063,0.063,
  14961     2.115,0.577,0.063,0.063,
  14962     2.120,0.581,0.063,0.063,
  14963     2.125,0.582,0.063,0.063,
  14964     2.130,0.582,0.063,0.063,
  14965     2.135,0.581,0.063,0.063,
  14966     2.140,0.582,0.063,0.063,
  14967     2.145,0.583,0.063,0.063,
  14968     2.150,0.586,0.063,0.063,
  14969     2.155,0.585,0.063,0.063,
  14970     2.160,0.585,0.063,0.063,
  14971     2.165,0.585,0.063,0.063,
  14972     2.170,0.585,0.063,0.063,
  14973     2.175,0.585,0.063,0.063,
  14974     2.180,0.583,0.063,0.063,
  14975     2.185,0.581,0.063,0.063,
  14976     2.190,0.573,0.063,0.063,
  14977     2.195,0.569,0.063,0.063,
  14978     2.200,0.560,0.062,0.062,
  14979     2.205,0.556,0.062,0.062,
  14980     2.210,0.551,0.062,0.062,
  14981     2.215,0.545,0.062,0.062,
  14982     2.220,0.532,0.061,0.061,
  14983     2.225,0.521,0.061,0.061,
  14984     2.230,0.505,0.060,0.060,
  14985     2.235,0.486,0.059,0.059,
  14986     2.240,0.456,0.058,0.058,
  14987     2.245,0.429,0.057,0.057,
  14988     2.250,0.375,0.055,0.055,
  14989     2.255,0.330,0.053,0.053,
  14990     2.260,0.263,0.051,0.051,
  14991     2.265,0.220,0.049,0.049,
  14992     2.270,0.167,0.047,0.047,
  14993     2.275,0.142,0.046,0.046,
  14994     2.280,0.111,0.044,0.044,
  14995     2.285,0.093,0.044,0.044,
  14996     2.290,0.076,0.043,0.043,
  14997     2.295,0.063,0.043,0.043,
  14998     2.300,0.052,0.042,0.042,
  14999     2.305,0.049,0.042,0.042,
  15000     2.310,0.057,0.042,0.042,
  15001     2.315,0.068,0.043,0.043,
  15002     2.320,0.084,0.043,0.043,
  15003     2.325,0.089,0.044,0.044,
  15004     2.330,0.097,0.044,0.044,
  15005     2.335,0.099,0.044,0.044,
  15006     2.340,0.100,0.044,0.044,
  15007     2.345,0.100,0.044,0.044,
  15008     2.350,0.101,0.044,0.044,
  15009     2.355,0.110,0.044,0.044,
  15010     2.360,0.121,0.045,0.045,
  15011     2.365,0.125,0.045,0.045,
  15012     2.370,0.130,0.045,0.045,
  15013     2.375,0.132,0.045,0.045,
  15014     2.380,0.131,0.045,0.045,
  15015     2.385,0.131,0.045,0.045,
  15016     2.390,0.134,0.045,0.045,
  15017     2.395,0.138,0.046,0.046,
  15018     2.400,0.143,0.046,0.046,
  15019     2.405,0.148,0.046,0.046,
  15020     2.410,0.153,0.046,0.046,
  15021     2.415,0.152,0.046,0.046,
  15022     2.420,0.149,0.046,0.046,
  15023     2.425,0.144,0.046,0.046,
  15024     2.430,0.132,0.045,0.045,
  15025     2.435,0.128,0.045,0.045,
  15026     2.440,0.125,0.045,0.045,
  15027     2.445,0.124,0.045,0.045,
  15028     2.450,0.116,0.045,0.045,
  15029     2.455,0.113,0.045,0.045,
  15030     2.460,0.114,0.045,0.045,
  15031     2.465,0.117,0.045,0.045,
  15032     2.470,0.126,0.045,0.045,
  15033     2.475,0.128,0.045,0.045,
  15034     2.480,0.129,0.045,0.045,
  15035     2.485,0.135,0.045,0.045,
  15036     2.490,0.145,0.046,0.046,
  15037     2.495,0.150,0.046,0.046,
  15038     2.500,0.155,0.046,0.046;
  15039 
  Processing Input Data File (in.idf) -- Complete
  Maximum number of Alpha IDF Args=          94
  Maximum number of Numeric IDF Args=        1764
  Number of IDF "Lines"=         601
  Number of Defaulted Fields=          58
  Number of Fields with Defaults=        1099
  Number of Autosized Fields=          60
  Number of Autosizable Fields =          70
  Number of Autocalculated Fields=          76
  Number of Autocalculatable Fields =         152
 Getting object=VERSION
 Getting object=HEATBALANCEALGORITHM
 Getting object=TIMESTEP
 Getting object=CONVERGENCELIMITS
 Getting object=SIMULATIONCONTROL
 Getting object=OUTPUT:SURFACES:LIST
 Getting object=OUTPUT:SURFACES:DRAWING
 Getting object=OUTPUT:VARIABLEDICTIONARY
 Getting object=OUTPUT:CONSTRUCTIONS
 Getting object=BRANCH
 Getting object=CURVE:BIQUADRATIC
 Getting object=CURVE:QUADRATIC
 Getting object=NODELIST
 Getting object=BRANCHLIST
 Getting object=DESIGNSPECIFICATION:OUTDOORAIR
 Getting object=SIZING:PARAMETERS
 Getting object=ZONE
 Getting object=SIZING:ZONE
 Getting object=SIZING:SYSTEM
 Getting object=SIZING:PLANT
 Getting object=OUTPUT:TABLE:SUMMARYREPORTS
 Getting object=OUTPUT:VARIABLE
 Getting object=SIZINGPERIOD:DESIGNDAY
 Getting object=RUNPERIOD
 Getting object=RUNPERIODCONTROL:SPECIALDAYS
 Getting object=RUNPERIODCONTROL:DAYLIGHTSAVINGTIME
 Getting object=SITE:LOCATION
 Getting object=SITE:GROUNDTEMPERATURE:BUILDINGSURFACE
 Getting object=SITE:WATERMAINSTEMPERATURE
 Getting object=SCHEDULE:COMPACT
  Processing Schedule Input -- Start
 Getting object=SCHEDULETYPELIMITS
  Processing Schedule Input -- Complete
 Getting object=BUILDING
 Getting object=SURFACECONVECTIONALGORITHM:INSIDE
 Getting object=SURFACECONVECTIONALGORITHM:OUTSIDE
 Getting object=MATERIALPROPERTY:GLAZINGSPECTRALDATA
 Getting object=MATERIAL
 Getting object=MATERIAL:NOMASS
 Getting object=WINDOWMATERIAL:GLAZING
 Getting object=WINDOWMATERIAL:GAS
 Getting object=WINDOWMATERIAL:GLAZINGGROUP:THERMOCHROMIC
 Getting object=CONSTRUCTION
 Getting object=GLOBALGEOMETRYRULES
 Getting object=BUILDINGSURFACE:DETAILED
 Getting object=FENESTRATIONSURFACE:DETAILED
 Getting object=INTERNALMASS
 Getting object=PEOPLE
 Getting object=LIGHTS
 Getting object=ELECTRICEQUIPMENT
 Getting object=SHADOWCALCULATION
 Getting object=WATERHEATER:MIXED
 Getting object=ZONEINFILTRATION:DESIGNFLOWRATE
 Getting object=OUTDOORAIR:NODELIST
 Getting object=OUTDOORAIR:NODE
 Getting object=ZONECONTROL:THERMOSTAT
 Getting object=THERMOSTATSETPOINT:DUALSETPOINT
 Getting object=SETPOINTMANAGER:SCHEDULED
 Getting object=SETPOINTMANAGER:SINGLEZONE:REHEAT
 Getting object=SETPOINTMANAGER:MIXEDAIR
 Getting object=PLANTLOOP
 Getting object=AVAILABILITYMANAGER:NIGHTCYCLE
 Getting object=AVAILABILITYMANAGERASSIGNMENTLIST
 Getting object=CONNECTORLIST
 Getting object=CONNECTOR:SPLITTER
 Getting object=CONNECTOR:MIXER
 Getting object=ZONEHVAC:EQUIPMENTCONNECTIONS
 Getting object=ZONEHVAC:EQUIPMENTLIST
 Getting object=AIRLOOPHVAC:SUPPLYPATH
 Getting object=AIRLOOPHVAC:RETURNPATH
 Getting object=WATERUSE:EQUIPMENT
 Getting object=WATERUSE:CONNECTIONS
 Getting object=AIRLOOPHVAC:ZONESPLITTER
 Getting object=AIRTERMINAL:SINGLEDUCT:UNCONTROLLED
 Getting object=AIRLOOPHVAC:ZONEMIXER
 Getting object=AIRLOOPHVAC
 Getting object=AIRLOOPHVAC:CONTROLLERLIST
 Getting object=AIRLOOPHVAC:OUTDOORAIRSYSTEM
 Getting object=AIRLOOPHVAC:OUTDOORAIRSYSTEM:EQUIPMENTLIST
 Getting object=OUTDOORAIR:MIXER
 Getting object=EXTERIOR:LIGHTS
 Getting object=CONTROLLER:OUTDOORAIR
 Getting object=COILSYSTEM:COOLING:DX
 Getting object=COIL:COOLING:DX:SINGLESPEED
 Getting object=COIL:HEATING:GAS
 Getting object=FAN:CONSTANTVOLUME
 Getting object=PIPE:ADIABATIC
 Getting object=PLANTEQUIPMENTOPERATIONSCHEMES
 Getting object=PLANTEQUIPMENTOPERATION:HEATINGLOAD
 Getting object=PLANTEQUIPMENTLIST
 Getting object=PUMP:CONSTANTSPEED
 Getting object=COMPONENTCOST:LINEITEM
 Getting object=ENVIRONMENTALIMPACTFACTORS
 Getting object=FUELFACTORS
 Getting object=OUTPUTCONTROL:TABLE:STYLE
 Getting object=UTILITYCOST:TARIFF
 Getting object=UTILITYCOST:QUALIFY
 Getting object=UTILITYCOST:CHARGE:SIMPLE
 Getting object=UTILITYCOST:VARIABLE
 MonthlyInputCount=           0
 sizeMonthlyInput=           0
 MonthlyFieldSetInputCount=           0
 sizeMonthlyFieldSetInput=           0
 MonthlyTablesCount=           0
 MonthlyColumnsCount=           0
 sizeReportName=         100
 numReportName=          13
 sizeSubTable=         100
 numSubTable=          62
 sizeColumnTag=         400
 numColumnTag=         389
 sizeTableEntry=        2400
 numTableEntry=        2354
 sizeCompSizeTableEntry=         100
 numCompSizeTableEntry=          55
 NumOfRVariable=        7813
 NumOfRVariable(Total)=        7813
 NumOfRVariable(Actual)=         153
 NumOfRVariable(Summed)=         150
 NumOfRVariable(Meter)=         150
 NumOfIVariable=         478
 NumOfIVariable(Total)=         478
 NumOfIVariable(Actual)=           0
 NumOfIVariable(Summed)=           0
 MaxRVariable=        1000
 MaxIVariable=          10
 NumEnergyMeters=         176
 NumVarMeterArrays=         150
 maxUniqueKeyCount=        1500
 maxNumberOfFigures=           1
 MAXHCArrayBounds=          10
 MaxVerticesPerSurface=           4
 NumReportList=         500
 InstMeterCacheSize=        1000
 ClippingAlgorithm=SutherlandHodgman
 MonthlyFieldSetInputCount=           0
 NumConsideredOutputVariables=           3
 MaxConsideredOutputVariables=           3
 numActuatorsUsed=           0
 numEMSActuatorsAvailable=           0
 maxEMSActuatorsAvailable=           0
 numInternalVariablesUsed=           0
 numEMSInternalVarsAvailable=           1
 maxEMSInternalVarsAvailable=        1000
 NumOfNodeConnections=         305
 MaxNumOfNodeConnections=        1000
